* NGSPICE file created from bgr_top_flat.ext - technology: sky130A

.subckt bgr_top_flat porst vbg VSS VDD
X0 sky130_asc_pfet_01v8_lvt_60_2/DRAIN sky130_asc_pfet_01v8_lvt_60_0/GATE.t24 VDD.t439 VDD.t438 sky130_fd_pr__pfet_01v8_lvt ad=8.2639e+13p pd=5.2584e+08u as=0p ps=0u w=6.45e+06u l=2e+06u
X1 VSS.t94 sky130_asc_pfet_01v8_lvt_60_2/DRAIN sky130_fd_pr__cap_mim_m3_1 l=2e+06u w=2e+06u
X2 sky130_asc_pfet_01v8_lvt_6_1/DRAIN.t8 sky130_asc_pfet_01v8_lvt_60_1/DRAIN.t62 sky130_asc_nfet_01v8_lvt_1_1/DRAIN.t14 VSS sky130_fd_pr__nfet_01v8_lvt ad=0p pd=0u as=0p ps=0u w=4e+06u l=2e+06u
X3 VDD.t437 sky130_asc_pfet_01v8_lvt_60_0/GATE.t25 vbg.t59 VDD.t436 sky130_fd_pr__pfet_01v8_lvt ad=0p pd=0u as=0p ps=0u w=6.45e+06u l=2e+06u
X4 sky130_asc_pfet_01v8_lvt_60_0/GATE.t26 VDD.t143 sky130_fd_pr__cap_mim_m3_1 l=2e+06u w=2e+06u
X5 sky130_asc_pfet_01v8_lvt_60_0/GATE.t27 VDD.t167 sky130_fd_pr__cap_mim_m3_1 l=2e+06u w=2e+06u
X6 sky130_asc_nfet_01v8_lvt_1_0/DRAIN.t11 sky130_asc_pfet_01v8_lvt_60_0/GATE.t28 VDD.t435 VDD.t434 sky130_fd_pr__pfet_01v8_lvt ad=0p pd=0u as=0p ps=0u w=6.45e+06u l=2e+06u
X7 VDD.t433 sky130_asc_pfet_01v8_lvt_60_0/GATE.t29 sky130_asc_pfet_01v8_lvt_60_1/DRAIN.t60 VDD.t432 sky130_fd_pr__pfet_01v8_lvt ad=0p pd=0u as=0p ps=0u w=6.45e+06u l=2e+06u
X8 VDD.t431 sky130_asc_pfet_01v8_lvt_60_0/GATE.t30 sky130_asc_nfet_01v8_lvt_1_0/DRAIN.t10 VDD.t430 sky130_fd_pr__pfet_01v8_lvt ad=0p pd=0u as=0p ps=0u w=6.45e+06u l=2e+06u
X9 sky130_asc_pfet_01v8_lvt_60_1/DRAIN.t59 sky130_asc_pfet_01v8_lvt_60_0/GATE.t31 VDD.t429 VDD.t428 sky130_fd_pr__pfet_01v8_lvt ad=0p pd=0u as=0p ps=0u w=6.45e+06u l=2e+06u
X10 VSS.t95 sky130_asc_pfet_01v8_lvt_60_2/DRAIN sky130_fd_pr__cap_mim_m3_1 l=2e+06u w=2e+06u
X11 sky130_asc_res_xhigh_po_2p85_1_21/Rout a_15392_9587.t0 VSS sky130_fd_pr__res_xhigh_po w=2.85e+06u l=7.88e+06u
X12 sky130_asc_pfet_01v8_lvt_60_2/DRAIN sky130_asc_pfet_01v8_lvt_60_0/GATE.t32 VDD.t427 VDD.t426 sky130_fd_pr__pfet_01v8_lvt ad=0p pd=0u as=0p ps=0u w=6.45e+06u l=2e+06u
X13 sky130_asc_pfet_01v8_lvt_60_0/GATE.t33 VDD.t140 sky130_fd_pr__cap_mim_m3_1 l=2e+06u w=2e+06u
X14 VSS VSS.t92 sky130_asc_res_xhigh_po_2p85_1_19/Rout sky130_fd_pr__pnp_05v5_W3p40L3p40
X15 sky130_asc_pfet_01v8_lvt_60_0/GATE.t34 VDD.t349 sky130_fd_pr__cap_mim_m3_1 l=2e+06u w=2e+06u
X16 VDD.t425 sky130_asc_pfet_01v8_lvt_60_0/GATE.t35 sky130_asc_pfet_01v8_lvt_60_1/DRAIN.t58 VDD.t424 sky130_fd_pr__pfet_01v8_lvt ad=0p pd=0u as=0p ps=0u w=6.45e+06u l=2e+06u
X17 VSS.t97 sky130_asc_pfet_01v8_lvt_60_2/DRAIN sky130_fd_pr__cap_mim_m3_1 l=2e+06u w=2e+06u
X18 sky130_asc_pfet_01v8_lvt_60_0/GATE.t36 VDD.t348 sky130_fd_pr__cap_mim_m3_1 l=2e+06u w=2e+06u
X19 VSS.t98 sky130_asc_pfet_01v8_lvt_60_2/DRAIN sky130_fd_pr__cap_mim_m3_1 l=2e+06u w=2e+06u
X20 sky130_asc_res_xhigh_po_2p85_1_19/Rin.t0 a_39402_28387.t0 VSS sky130_fd_pr__res_xhigh_po w=2.85e+06u l=7.88e+06u
X21 VSS.t99 sky130_asc_pfet_01v8_lvt_60_2/DRAIN sky130_fd_pr__cap_mim_m3_1 l=2e+06u w=2e+06u
X22 VDD.t423 sky130_asc_pfet_01v8_lvt_60_0/GATE.t37 sky130_asc_nfet_01v8_lvt_1_0/DRAIN.t9 VDD.t422 sky130_fd_pr__pfet_01v8_lvt ad=0p pd=0u as=0p ps=0u w=6.45e+06u l=2e+06u
X23 sky130_asc_pfet_01v8_lvt_60_0/GATE.t38 VDD.t142 sky130_fd_pr__cap_mim_m3_1 l=2e+06u w=2e+06u
X24 VDD.t421 sky130_asc_pfet_01v8_lvt_60_0/GATE.t39 vbg.t58 VDD.t420 sky130_fd_pr__pfet_01v8_lvt ad=0p pd=0u as=0p ps=0u w=6.45e+06u l=2e+06u
X25 VSS VSS.t90 sky130_asc_res_xhigh_po_2p85_1_19/Rout sky130_fd_pr__pnp_05v5_W3p40L3p40
X26 sky130_asc_pfet_01v8_lvt_60_0/GATE.t40 VDD.t343 sky130_fd_pr__cap_mim_m3_1 l=2e+06u w=2e+06u
X27 sky130_asc_res_xhigh_po_2p85_1_17/Rout a_41264_17107.t0 VSS sky130_fd_pr__res_xhigh_po w=2.85e+06u l=7.88e+06u
X28 sky130_asc_pfet_01v8_lvt_60_2/DRAIN sky130_asc_pfet_01v8_lvt_60_0/GATE.t41 VDD.t419 VDD.t418 sky130_fd_pr__pfet_01v8_lvt ad=0p pd=0u as=0p ps=0u w=6.45e+06u l=2e+06u
X29 sky130_asc_res_xhigh_po_2p85_1_14/Rin.t0 a_37148_9587.t1 VSS sky130_fd_pr__res_xhigh_po w=2.85e+06u l=7.88e+06u
X30 VSS VSS.t88 sky130_asc_res_xhigh_po_2p85_1_19/Rout sky130_fd_pr__pnp_05v5_W3p40L3p40
X31 sky130_asc_res_xhigh_po_2p85_1_2/Rin.t0 a_9904_9587# VSS sky130_fd_pr__res_xhigh_po w=2.85e+06u l=7.88e+06u
X32 VDD.t397 sky130_asc_pfet_01v8_lvt_60_0/GATE.t42 sky130_asc_pfet_01v8_lvt_60_2/DRAIN VDD.t396 sky130_fd_pr__pfet_01v8_lvt ad=0p pd=0u as=0p ps=0u w=6.45e+06u l=2e+06u
X33 sky130_asc_pfet_01v8_lvt_60_0/GATE.t43 VDD.t107 sky130_fd_pr__cap_mim_m3_1 l=2e+06u w=2e+06u
X34 sky130_asc_pfet_01v8_lvt_60_0/GATE.t44 VDD.t334 sky130_fd_pr__cap_mim_m3_1 l=2e+06u w=2e+06u
X35 VDD.t417 sky130_asc_pfet_01v8_lvt_60_0/GATE.t45 sky130_asc_nfet_01v8_lvt_1_0/DRAIN.t8 VDD.t416 sky130_fd_pr__pfet_01v8_lvt ad=0p pd=0u as=0p ps=0u w=6.45e+06u l=2e+06u
X36 VSS.t102 sky130_asc_pfet_01v8_lvt_60_2/DRAIN sky130_fd_pr__cap_mim_m3_1 l=2e+06u w=2e+06u
X37 sky130_asc_pfet_01v8_lvt_60_0/GATE.t46 VDD.t340 sky130_fd_pr__cap_mim_m3_1 l=2e+06u w=2e+06u
X38 VDD.t413 sky130_asc_pfet_01v8_lvt_60_0/GATE.t47 sky130_asc_nfet_01v8_lvt_1_0/DRAIN.t7 VDD.t412 sky130_fd_pr__pfet_01v8_lvt ad=0p pd=0u as=0p ps=0u w=6.45e+06u l=2e+06u
X39 sky130_asc_pfet_01v8_lvt_60_1/DRAIN.t57 sky130_asc_pfet_01v8_lvt_60_0/GATE.t48 VDD.t415 VDD.t414 sky130_fd_pr__pfet_01v8_lvt ad=0p pd=0u as=0p ps=0u w=6.45e+06u l=2e+06u
X40 VSS.t103 sky130_asc_pfet_01v8_lvt_60_2/DRAIN sky130_fd_pr__cap_mim_m3_1 l=2e+06u w=2e+06u
X41 VDD.t411 sky130_asc_pfet_01v8_lvt_60_0/GATE.t49 sky130_asc_pfet_01v8_lvt_60_1/DRAIN.t56 VDD.t410 sky130_fd_pr__pfet_01v8_lvt ad=0p pd=0u as=0p ps=0u w=6.45e+06u l=2e+06u
X42 sky130_asc_pfet_01v8_lvt_60_0/GATE.t50 VDD.t88 sky130_fd_pr__cap_mim_m3_1 l=2e+06u w=2e+06u
X43 sky130_asc_pfet_01v8_lvt_60_0/GATE.t51 VDD.t325 sky130_fd_pr__cap_mim_m3_1 l=2e+06u w=2e+06u
X44 sky130_asc_pfet_01v8_lvt_60_0/GATE.t33 VDD.t335 sky130_fd_pr__cap_mim_m3_1 l=2e+06u w=2e+06u
X45 sky130_asc_nfet_01v8_lvt_1_1/DRAIN.t13 sky130_asc_pfet_01v8_lvt_60_1/DRAIN.t63 sky130_asc_pfet_01v8_lvt_6_1/DRAIN.t7 VSS sky130_fd_pr__nfet_01v8_lvt ad=0p pd=0u as=0p ps=0u w=4e+06u l=2e+06u
X46 sky130_asc_pfet_01v8_lvt_6_1/DRAIN.t6 sky130_asc_pfet_01v8_lvt_60_1/DRAIN.t64 sky130_asc_nfet_01v8_lvt_1_1/DRAIN.t12 VSS sky130_fd_pr__nfet_01v8_lvt ad=0p pd=0u as=0p ps=0u w=4e+06u l=2e+06u
X47 sky130_asc_pfet_01v8_lvt_60_1/DRAIN.t55 sky130_asc_pfet_01v8_lvt_60_0/GATE.t52 VDD.t409 VDD.t408 sky130_fd_pr__pfet_01v8_lvt ad=0p pd=0u as=0p ps=0u w=6.45e+06u l=2e+06u
X48 VDD.t407 sky130_asc_pfet_01v8_lvt_60_0/GATE.t53 sky130_asc_pfet_01v8_lvt_60_1/DRAIN.t54 VDD.t406 sky130_fd_pr__pfet_01v8_lvt ad=0p pd=0u as=0p ps=0u w=6.45e+06u l=2e+06u
X49 sky130_asc_res_xhigh_po_2p85_1_19/Rout a_41754_35907# VSS sky130_fd_pr__res_xhigh_po w=2.85e+06u l=7.88e+06u
X50 sky130_asc_pfet_01v8_lvt_60_0/GATE.t54 VDD.t91 sky130_fd_pr__cap_mim_m3_1 l=2e+06u w=2e+06u
X51 sky130_asc_res_xhigh_po_2p85_1_1/Rout a_9904_5827# VSS sky130_fd_pr__res_xhigh_po w=2.85e+06u l=7.88e+06u
X52 VSS.t104 sky130_asc_pfet_01v8_lvt_60_2/DRAIN sky130_fd_pr__cap_mim_m3_1 l=2e+06u w=2e+06u
X53 VSS.t105 sky130_asc_pfet_01v8_lvt_60_2/DRAIN sky130_fd_pr__cap_mim_m3_1 l=2e+06u w=2e+06u
X54 sky130_asc_pfet_01v8_lvt_60_0/GATE.t55 VDD.t87 sky130_fd_pr__cap_mim_m3_1 l=2e+06u w=2e+06u
X55 VSS.t106 sky130_asc_pfet_01v8_lvt_60_2/DRAIN sky130_fd_pr__cap_mim_m3_1 l=2e+06u w=2e+06u
X56 VDD.t405 sky130_asc_pfet_01v8_lvt_60_0/GATE.t56 sky130_asc_pfet_01v8_lvt_60_2/DRAIN VDD.t404 sky130_fd_pr__pfet_01v8_lvt ad=0p pd=0u as=0p ps=0u w=6.45e+06u l=2e+06u
X57 sky130_asc_pfet_01v8_lvt_60_2/DRAIN sky130_asc_pfet_01v8_lvt_60_0/GATE.t57 VDD.t403 VDD.t402 sky130_fd_pr__pfet_01v8_lvt ad=0p pd=0u as=0p ps=0u w=6.45e+06u l=2e+06u
X58 sky130_asc_nfet_01v8_lvt_1_1/DRAIN.t11 sky130_asc_pfet_01v8_lvt_60_1/DRAIN.t65 sky130_asc_pfet_01v8_lvt_6_1/DRAIN.t5 VSS sky130_fd_pr__nfet_01v8_lvt ad=0p pd=0u as=0p ps=0u w=4e+06u l=2e+06u
X59 VDD.t401 sky130_asc_pfet_01v8_lvt_60_0/GATE.t58 sky130_asc_pfet_01v8_lvt_60_2/DRAIN VDD.t400 sky130_fd_pr__pfet_01v8_lvt ad=0p pd=0u as=0p ps=0u w=6.45e+06u l=2e+06u
X60 sky130_asc_pfet_01v8_lvt_60_0/GATE.t44 VDD.t98 sky130_fd_pr__cap_mim_m3_1 l=2e+06u w=2e+06u
X61 sky130_asc_pfet_01v8_lvt_60_2/DRAIN sky130_asc_pfet_01v8_lvt_60_0/GATE.t59 VDD.t399 VDD.t398 sky130_fd_pr__pfet_01v8_lvt ad=0p pd=0u as=0p ps=0u w=6.45e+06u l=2e+06u
X62 VSS.t107 sky130_asc_pfet_01v8_lvt_60_2/DRAIN sky130_fd_pr__cap_mim_m3_1 l=2e+06u w=2e+06u
X63 VSS.t108 sky130_asc_pfet_01v8_lvt_60_2/DRAIN sky130_fd_pr__cap_mim_m3_1 l=2e+06u w=2e+06u
X64 sky130_asc_pfet_01v8_lvt_6_1/DRAIN.t4 sky130_asc_pfet_01v8_lvt_60_1/DRAIN.t66 sky130_asc_nfet_01v8_lvt_1_1/DRAIN.t9 VSS sky130_fd_pr__nfet_01v8_lvt ad=0p pd=0u as=0p ps=0u w=4e+06u l=2e+06u
X65 VSS.t109 sky130_asc_pfet_01v8_lvt_60_2/DRAIN sky130_fd_pr__cap_mim_m3_1 l=2e+06u w=2e+06u
X66 VSS.t13 sky130_asc_nfet_01v8_lvt_1_0/DRAIN.t14 sky130_asc_nfet_01v8_lvt_1_1/DRAIN.t18 VSS sky130_fd_pr__nfet_01v8_lvt ad=0p pd=0u as=0p ps=0u w=4e+06u l=2e+06u
X67 VSS.t110 sky130_asc_pfet_01v8_lvt_60_2/DRAIN sky130_fd_pr__cap_mim_m3_1 l=2e+06u w=2e+06u
X68 sky130_asc_pfet_01v8_lvt_60_0/GATE.t43 VDD.t312 sky130_fd_pr__cap_mim_m3_1 l=2e+06u w=2e+06u
X69 VSS VSS.t86 sky130_asc_res_xhigh_po_2p85_1_19/Rout sky130_fd_pr__pnp_05v5_W3p40L3p40
X70 VSS.t112 sky130_asc_pfet_01v8_lvt_60_2/DRAIN sky130_fd_pr__cap_mim_m3_1 l=2e+06u w=2e+06u
X71 sky130_asc_pfet_01v8_lvt_60_2/DRAIN sky130_asc_pfet_01v8_lvt_60_0/GATE.t60 VDD.t395 VDD.t394 sky130_fd_pr__pfet_01v8_lvt ad=0p pd=0u as=0p ps=0u w=6.45e+06u l=2e+06u
X72 VDD.t393 sky130_asc_pfet_01v8_lvt_60_0/GATE.t61 sky130_asc_pfet_01v8_lvt_60_1/DRAIN.t53 VDD.t392 sky130_fd_pr__pfet_01v8_lvt ad=0p pd=0u as=0p ps=0u w=6.45e+06u l=2e+06u
X73 VSS.t113 sky130_asc_pfet_01v8_lvt_60_2/DRAIN sky130_fd_pr__cap_mim_m3_1 l=2e+06u w=2e+06u
X74 VSS.t114 sky130_asc_pfet_01v8_lvt_60_2/DRAIN sky130_fd_pr__cap_mim_m3_1 l=2e+06u w=2e+06u
X75 vbg.t57 sky130_asc_pfet_01v8_lvt_60_0/GATE.t62 VDD.t391 VDD.t390 sky130_fd_pr__pfet_01v8_lvt ad=0p pd=0u as=0p ps=0u w=6.45e+06u l=2e+06u
X76 VSS.t115 sky130_asc_pfet_01v8_lvt_60_2/DRAIN sky130_fd_pr__cap_mim_m3_1 l=2e+06u w=2e+06u
X77 VSS.t116 sky130_asc_pfet_01v8_lvt_60_2/DRAIN sky130_fd_pr__cap_mim_m3_1 l=2e+06u w=2e+06u
X78 sky130_asc_pfet_01v8_lvt_60_0/GATE.t26 VDD.t23 sky130_fd_pr__cap_mim_m3_1 l=2e+06u w=2e+06u
X79 sky130_asc_res_xhigh_po_2p85_1_29/Rout.t0 a_30582_5827# VSS sky130_fd_pr__res_xhigh_po w=2.85e+06u l=7.88e+06u
X80 VDD.t389 sky130_asc_pfet_01v8_lvt_60_0/GATE.t63 sky130_asc_pfet_01v8_lvt_60_1/DRAIN.t52 VDD.t388 sky130_fd_pr__pfet_01v8_lvt ad=0p pd=0u as=0p ps=0u w=6.45e+06u l=2e+06u
X81 VSS.t117 sky130_asc_pfet_01v8_lvt_60_2/DRAIN sky130_fd_pr__cap_mim_m3_1 l=2e+06u w=2e+06u
X82 VSS.t118 sky130_asc_pfet_01v8_lvt_60_2/DRAIN sky130_fd_pr__cap_mim_m3_1 l=2e+06u w=2e+06u
X83 sky130_asc_cap_mim_m3_1_3/Cout VDD.t20 sky130_fd_pr__cap_mim_m3_1 l=2e+06u w=2e+06u
X84 VSS VSS.t84 sky130_asc_res_xhigh_po_2p85_1_19/Rout sky130_fd_pr__pnp_05v5_W3p40L3p40
X85 VSS.t120 sky130_asc_pfet_01v8_lvt_60_2/DRAIN sky130_fd_pr__cap_mim_m3_1 l=2e+06u w=2e+06u
X86 sky130_asc_res_xhigh_po_2p85_1_26/Rin a_27838_5827.t1 VSS sky130_fd_pr__res_xhigh_po w=2.85e+06u l=7.88e+06u
X87 sky130_asc_nfet_01v8_lvt_1_0/DRAIN.t6 sky130_asc_pfet_01v8_lvt_60_0/GATE.t64 VDD.t387 VDD.t386 sky130_fd_pr__pfet_01v8_lvt ad=0p pd=0u as=0p ps=0u w=6.45e+06u l=2e+06u
X88 vbg.t56 sky130_asc_pfet_01v8_lvt_60_0/GATE.t65 VDD.t385 VDD.t384 sky130_fd_pr__pfet_01v8_lvt ad=0p pd=0u as=0p ps=0u w=6.45e+06u l=2e+06u
X89 VSS.t121 sky130_asc_pfet_01v8_lvt_60_2/DRAIN sky130_fd_pr__cap_mim_m3_1 l=2e+06u w=2e+06u
X90 sky130_asc_res_xhigh_po_2p85_1_24/Rin a_12648_9587# VSS sky130_fd_pr__res_xhigh_po w=2.85e+06u l=7.88e+06u
X91 sky130_asc_res_xhigh_po_2p85_1_9/Rout a_15392_13347.t0 VSS sky130_fd_pr__res_xhigh_po w=2.85e+06u l=7.88e+06u
X92 vbg.t55 sky130_asc_pfet_01v8_lvt_60_0/GATE.t66 VDD.t383 VDD.t382 sky130_fd_pr__pfet_01v8_lvt ad=0p pd=0u as=0p ps=0u w=6.45e+06u l=2e+06u
X93 VSS.t122 sky130_asc_pfet_01v8_lvt_60_2/DRAIN sky130_fd_pr__cap_mim_m3_1 l=2e+06u w=2e+06u
X94 sky130_asc_pfet_01v8_lvt_60_0/GATE.t54 VDD.t309 sky130_fd_pr__cap_mim_m3_1 l=2e+06u w=2e+06u
X95 sky130_asc_pfet_01v8_lvt_60_2/DRAIN sky130_asc_pfet_01v8_lvt_60_0/GATE.t67 VDD.t381 VDD.t380 sky130_fd_pr__pfet_01v8_lvt ad=0p pd=0u as=0p ps=0u w=6.45e+06u l=2e+06u
X96 sky130_asc_pfet_01v8_lvt_60_0/GATE.t55 VDD.t304 sky130_fd_pr__cap_mim_m3_1 l=2e+06u w=2e+06u
X97 VDD.t379 sky130_asc_pfet_01v8_lvt_60_0/GATE.t68 sky130_asc_pfet_01v8_lvt_60_2/DRAIN VDD.t378 sky130_fd_pr__pfet_01v8_lvt ad=0p pd=0u as=0p ps=0u w=6.45e+06u l=2e+06u
X98 VSS.t123 sky130_asc_pfet_01v8_lvt_60_2/DRAIN sky130_fd_pr__cap_mim_m3_1 l=2e+06u w=2e+06u
X99 sky130_asc_pfet_01v8_lvt_60_2/DRAIN sky130_asc_pfet_01v8_lvt_60_0/GATE.t69 VDD.t377 VDD.t376 sky130_fd_pr__pfet_01v8_lvt ad=0p pd=0u as=0p ps=0u w=6.45e+06u l=2e+06u
X100 VSS VSS.t82 sky130_asc_res_xhigh_po_2p85_1_19/Rout sky130_fd_pr__pnp_05v5_W3p40L3p40
X101 VDD.t375 sky130_asc_pfet_01v8_lvt_60_0/GATE.t70 sky130_asc_pfet_01v8_lvt_60_1/DRAIN.t51 VDD.t374 sky130_fd_pr__pfet_01v8_lvt ad=0p pd=0u as=0p ps=0u w=6.45e+06u l=2e+06u
X102 sky130_asc_pfet_01v8_lvt_60_1/DRAIN.t50 sky130_asc_pfet_01v8_lvt_60_0/GATE.t71 VDD.t373 VDD.t372 sky130_fd_pr__pfet_01v8_lvt ad=0p pd=0u as=0p ps=0u w=6.45e+06u l=2e+06u
X103 sky130_asc_nfet_01v8_lvt_1_1/DRAIN.t10 sky130_asc_pfet_01v8_lvt_60_1/DRAIN.t67 sky130_asc_pfet_01v8_lvt_6_1/DRAIN.t3 VSS sky130_fd_pr__nfet_01v8_lvt ad=0p pd=0u as=0p ps=0u w=4e+06u l=2e+06u
X104 sky130_asc_pfet_01v8_lvt_60_0/GATE.t72 VDD.t37 sky130_fd_pr__cap_mim_m3_1 l=2e+06u w=2e+06u
X105 VSS.t125 sky130_asc_pfet_01v8_lvt_60_2/DRAIN sky130_fd_pr__cap_mim_m3_1 l=2e+06u w=2e+06u
X106 sky130_asc_res_xhigh_po_2p85_1_3/Rin a_9904_9587# VSS sky130_fd_pr__res_xhigh_po w=2.85e+06u l=7.88e+06u
X107 sky130_asc_res_xhigh_po_2p85_1_15/Rin a_39892_5827# VSS sky130_fd_pr__res_xhigh_po w=2.85e+06u l=7.88e+06u
X108 sky130_asc_res_xhigh_po_2p85_1_13/Rin a_33326_5827# VSS sky130_fd_pr__res_xhigh_po w=2.85e+06u l=7.88e+06u
X109 sky130_asc_pfet_01v8_lvt_60_0/GATE.t73 VDD.t9 sky130_fd_pr__cap_mim_m3_1 l=2e+06u w=2e+06u
X110 VSS.t126 sky130_asc_pfet_01v8_lvt_60_2/DRAIN sky130_fd_pr__cap_mim_m3_1 l=2e+06u w=2e+06u
X111 sky130_asc_pfet_01v8_lvt_60_1/DRAIN.t49 sky130_asc_pfet_01v8_lvt_60_0/GATE.t74 VDD.t371 VDD.t370 sky130_fd_pr__pfet_01v8_lvt ad=0p pd=0u as=0p ps=0u w=6.45e+06u l=2e+06u
X112 VSS VSS.t80 sky130_asc_res_xhigh_po_2p85_1_19/Rout sky130_fd_pr__pnp_05v5_W3p40L3p40
X113 sky130_asc_pfet_01v8_lvt_60_0/GATE.t75 VDD.t8 sky130_fd_pr__cap_mim_m3_1 l=2e+06u w=2e+06u
X114 sky130_asc_res_xhigh_po_2p85_1_12/Rout.t0 a_37148_5827# VSS sky130_fd_pr__res_xhigh_po w=2.85e+06u l=7.88e+06u
X115 VSS.t128 sky130_asc_pfet_01v8_lvt_60_2/DRAIN sky130_fd_pr__cap_mim_m3_1 l=2e+06u w=2e+06u
X116 sky130_asc_pfet_01v8_lvt_60_1/DRAIN.t61 a_39402_28387.t1 VSS sky130_fd_pr__res_xhigh_po w=2.85e+06u l=7.88e+06u
X117 VDD.t369 sky130_asc_pfet_01v8_lvt_60_0/GATE.t76 vbg.t54 VDD.t368 sky130_fd_pr__pfet_01v8_lvt ad=0p pd=0u as=0p ps=0u w=6.45e+06u l=2e+06u
X118 VSS.t129 sky130_asc_pfet_01v8_lvt_60_2/DRAIN sky130_fd_pr__cap_mim_m3_1 l=2e+06u w=2e+06u
X119 sky130_asc_pfet_01v8_lvt_60_1/DRAIN.t48 sky130_asc_pfet_01v8_lvt_60_0/GATE.t77 VDD.t367 VDD.t366 sky130_fd_pr__pfet_01v8_lvt ad=0p pd=0u as=0p ps=0u w=6.45e+06u l=2e+06u
X120 sky130_asc_res_xhigh_po_2p85_1_9/Rin a_34404_9587# VSS sky130_fd_pr__res_xhigh_po w=2.85e+06u l=7.88e+06u
X121 VDD.t365 sky130_asc_pfet_01v8_lvt_60_0/GATE.t78 sky130_asc_pfet_01v8_lvt_60_2/DRAIN VDD.t364 sky130_fd_pr__pfet_01v8_lvt ad=0p pd=0u as=0p ps=0u w=6.45e+06u l=2e+06u
X122 sky130_asc_pfet_01v8_lvt_60_1/DRAIN.t47 sky130_asc_pfet_01v8_lvt_60_0/GATE.t79 VDD.t363 VDD.t362 sky130_fd_pr__pfet_01v8_lvt ad=0p pd=0u as=0p ps=0u w=6.45e+06u l=2e+06u
X123 VDD.t361 sky130_asc_pfet_01v8_lvt_60_0/GATE.t80 sky130_asc_pfet_01v8_lvt_60_2/DRAIN VDD.t360 sky130_fd_pr__pfet_01v8_lvt ad=0p pd=0u as=0p ps=0u w=6.45e+06u l=2e+06u
X124 sky130_asc_res_xhigh_po_2p85_1_18/Rout a_42146_28387# VSS sky130_fd_pr__res_xhigh_po w=2.85e+06u l=7.88e+06u
X125 VSS VSS.t78 sky130_asc_res_xhigh_po_2p85_1_19/Rout sky130_fd_pr__pnp_05v5_W3p40L3p40
X126 sky130_asc_pfet_01v8_lvt_60_0/GATE.t81 VDD.t10 sky130_fd_pr__cap_mim_m3_1 l=2e+06u w=2e+06u
X127 sky130_asc_res_xhigh_po_2p85_1_7/Rin a_8728_24627# VSS sky130_fd_pr__res_xhigh_po w=2.85e+06u l=7.88e+06u
X128 VSS.t131 sky130_asc_pfet_01v8_lvt_60_2/DRAIN sky130_fd_pr__cap_mim_m3_1 l=2e+06u w=2e+06u
X129 VSS.t132 sky130_asc_pfet_01v8_lvt_60_2/DRAIN sky130_fd_pr__cap_mim_m3_1 l=2e+06u w=2e+06u
X130 VSS.t133 sky130_asc_pfet_01v8_lvt_60_2/DRAIN sky130_fd_pr__cap_mim_m3_1 l=2e+06u w=2e+06u
X131 sky130_asc_res_xhigh_po_2p85_1_22/Rin.t0 a_25094_5827# VSS sky130_fd_pr__res_xhigh_po w=2.85e+06u l=7.88e+06u
X132 sky130_asc_pfet_01v8_lvt_60_1/DRAIN.t46 sky130_asc_pfet_01v8_lvt_60_0/GATE.t82 VDD.t359 VDD.t358 sky130_fd_pr__pfet_01v8_lvt ad=0p pd=0u as=0p ps=0u w=6.45e+06u l=2e+06u
X133 VDD.t357 sky130_asc_pfet_01v8_lvt_60_0/GATE.t83 vbg.t53 VDD.t356 sky130_fd_pr__pfet_01v8_lvt ad=0p pd=0u as=0p ps=0u w=6.45e+06u l=2e+06u
X134 VSS.t134 sky130_asc_pfet_01v8_lvt_60_2/DRAIN sky130_fd_pr__cap_mim_m3_1 l=2e+06u w=2e+06u
X135 VSS.t135 sky130_asc_pfet_01v8_lvt_60_2/DRAIN sky130_fd_pr__cap_mim_m3_1 l=2e+06u w=2e+06u
X136 sky130_asc_res_xhigh_po_2p85_1_10/Rin a_34404_9587# VSS sky130_fd_pr__res_xhigh_po w=2.85e+06u l=7.88e+06u
X137 sky130_asc_res_xhigh_po_2p85_1_24/Rin.t0 a_22350_5827.t0 VSS sky130_fd_pr__res_xhigh_po w=2.85e+06u l=7.88e+06u
X138 sky130_asc_pfet_01v8_lvt_60_0/GATE.t34 VDD.t349 sky130_fd_pr__cap_mim_m3_1 l=2e+06u w=2e+06u
X139 VDD.t351 sky130_asc_pfet_01v8_lvt_60_0/GATE.t84 sky130_asc_pfet_01v8_lvt_60_2/DRAIN VDD.t350 sky130_fd_pr__pfet_01v8_lvt ad=0p pd=0u as=0p ps=0u w=6.45e+06u l=2e+06u
X140 VSS.t10 a_41754_24627.t0 VSS sky130_fd_pr__res_xhigh_po w=2.85e+06u l=7.88e+06u
X141 VDD.t355 sky130_asc_pfet_01v8_lvt_60_0/GATE.t85 sky130_asc_pfet_01v8_lvt_60_1/DRAIN.t45 VDD.t354 sky130_fd_pr__pfet_01v8_lvt ad=0p pd=0u as=0p ps=0u w=6.45e+06u l=2e+06u
X142 VSS.t136 sky130_asc_pfet_01v8_lvt_60_2/DRAIN sky130_fd_pr__cap_mim_m3_1 l=2e+06u w=2e+06u
X143 sky130_asc_pfet_01v8_lvt_60_0/GATE.t36 VDD.t348 sky130_fd_pr__cap_mim_m3_1 l=2e+06u w=2e+06u
X144 VSS.t137 sky130_asc_pfet_01v8_lvt_60_2/DRAIN sky130_fd_pr__cap_mim_m3_1 l=2e+06u w=2e+06u
X145 VSS VSS.t76 sky130_asc_res_xhigh_po_2p85_1_19/Rout sky130_fd_pr__pnp_05v5_W3p40L3p40
X146 VSS.t139 sky130_asc_pfet_01v8_lvt_60_2/DRAIN sky130_fd_pr__cap_mim_m3_1 l=2e+06u w=2e+06u
X147 sky130_asc_pfet_01v8_lvt_60_1/DRAIN.t44 sky130_asc_pfet_01v8_lvt_60_0/GATE.t86 VDD.t353 VDD.t352 sky130_fd_pr__pfet_01v8_lvt ad=0p pd=0u as=0p ps=0u w=6.45e+06u l=2e+06u
X148 sky130_asc_nfet_01v8_lvt_1_0/DRAIN.t5 sky130_asc_pfet_01v8_lvt_60_0/GATE.t87 VDD.t347 VDD.t346 sky130_fd_pr__pfet_01v8_lvt ad=0p pd=0u as=0p ps=0u w=6.45e+06u l=2e+06u
X149 VDD.t345 sky130_asc_pfet_01v8_lvt_60_0/GATE.t88 sky130_asc_pfet_01v8_lvt_60_1/DRAIN.t43 VDD.t344 sky130_fd_pr__pfet_01v8_lvt ad=0p pd=0u as=0p ps=0u w=6.45e+06u l=2e+06u
X150 sky130_asc_pfet_01v8_lvt_60_0/GATE.t40 VDD.t343 sky130_fd_pr__cap_mim_m3_1 l=2e+06u w=2e+06u
X151 sky130_asc_pfet_01v8_lvt_60_0/GATE.t81 VDD.t15 sky130_fd_pr__cap_mim_m3_1 l=2e+06u w=2e+06u
X152 VSS.t7 a_16849_5827# VSS sky130_fd_pr__res_xhigh_po w=2.85e+06u l=1.075e+07u
X153 sky130_asc_pfet_01v8_lvt_60_0/GATE.t73 VDD.t265 sky130_fd_pr__cap_mim_m3_1 l=2e+06u w=2e+06u
X154 sky130_asc_pfet_01v8_lvt_60_0/GATE.t89 VDD.t264 sky130_fd_pr__cap_mim_m3_1 l=2e+06u w=2e+06u
X155 sky130_asc_pfet_01v8_lvt_60_0/GATE.t75 VDD.t18 sky130_fd_pr__cap_mim_m3_1 l=2e+06u w=2e+06u
X156 VDD.t342 sky130_asc_pfet_01v8_lvt_60_0/GATE.t90 vbg.t52 VDD.t341 sky130_fd_pr__pfet_01v8_lvt ad=0p pd=0u as=0p ps=0u w=6.45e+06u l=2e+06u
X157 VSS.t140 sky130_asc_pfet_01v8_lvt_60_2/DRAIN sky130_fd_pr__cap_mim_m3_1 l=2e+06u w=2e+06u
X158 VSS VSS.t74 sky130_asc_res_xhigh_po_2p85_1_19/Rout sky130_fd_pr__pnp_05v5_W3p40L3p40
X159 VSS.t142 sky130_asc_pfet_01v8_lvt_60_2/DRAIN sky130_fd_pr__cap_mim_m3_1 l=2e+06u w=2e+06u
X160 sky130_asc_res_xhigh_po_2p85_1_30/Rout.t0 a_28916_9587.t1 VSS sky130_fd_pr__res_xhigh_po w=2.85e+06u l=7.88e+06u
X161 sky130_asc_pfet_01v8_lvt_60_0/GATE.t46 VDD.t340 sky130_fd_pr__cap_mim_m3_1 l=2e+06u w=2e+06u
X162 VDD.t339 sky130_asc_pfet_01v8_lvt_60_0/GATE.t91 sky130_asc_pfet_01v8_lvt_60_1/DRAIN.t42 VDD.t338 sky130_fd_pr__pfet_01v8_lvt ad=0p pd=0u as=0p ps=0u w=6.45e+06u l=2e+06u
X163 sky130_asc_pfet_01v8_lvt_60_0/GATE.t92 VDD.t17 sky130_fd_pr__cap_mim_m3_1 l=2e+06u w=2e+06u
X164 VSS VSS.t72 sky130_asc_res_xhigh_po_2p85_1_19/Rout sky130_fd_pr__pnp_05v5_W3p40L3p40
X165 sky130_asc_res_xhigh_po_2p85_1_7/Rout.t0 a_15392_17107.t1 VSS sky130_fd_pr__res_xhigh_po w=2.85e+06u l=7.88e+06u
X166 sky130_asc_pfet_01v8_lvt_60_0/GATE.t93 VDD.t16 sky130_fd_pr__cap_mim_m3_1 l=2e+06u w=2e+06u
X167 VSS VSS.t70 sky130_asc_res_xhigh_po_2p85_1_19/Rout sky130_fd_pr__pnp_05v5_W3p40L3p40
X168 VDD.t337 sky130_asc_pfet_01v8_lvt_60_0/GATE.t94 sky130_asc_pfet_01v8_lvt_60_1/DRAIN.t41 VDD.t336 sky130_fd_pr__pfet_01v8_lvt ad=0p pd=0u as=0p ps=0u w=6.45e+06u l=2e+06u
X169 VDD.t49 sky130_asc_pfet_01v8_lvt_60_0/GATE.t95 sky130_asc_pfet_01v8_lvt_60_2/DRAIN VDD.t48 sky130_fd_pr__pfet_01v8_lvt ad=0p pd=0u as=0p ps=0u w=6.45e+06u l=2e+06u
X170 sky130_asc_pfet_01v8_lvt_60_0/GATE.t33 VDD.t335 sky130_fd_pr__cap_mim_m3_1 l=2e+06u w=2e+06u
X171 sky130_asc_res_xhigh_po_2p85_1_16/Rout.t0 a_41264_13347# VSS sky130_fd_pr__res_xhigh_po w=2.85e+06u l=7.88e+06u
X172 sky130_asc_pfet_01v8_lvt_60_0/GATE.t44 VDD.t334 sky130_fd_pr__cap_mim_m3_1 l=2e+06u w=2e+06u
X173 sky130_asc_pfet_01v8_lvt_60_2/DRAIN sky130_asc_pfet_01v8_lvt_60_0/GATE.t96 VDD.t333 VDD.t332 sky130_fd_pr__pfet_01v8_lvt ad=0p pd=0u as=0p ps=0u w=6.45e+06u l=2e+06u
X174 VSS VSS.t68 sky130_asc_res_xhigh_po_2p85_1_19/Rout sky130_fd_pr__pnp_05v5_W3p40L3p40
X175 sky130_asc_res_xhigh_po_2p85_1_24/Rout.t0 a_12648_9587# VSS sky130_fd_pr__res_xhigh_po w=2.85e+06u l=7.88e+06u
X176 sky130_asc_pfet_01v8_lvt_60_0/GATE.t97 VDD.t13 sky130_fd_pr__cap_mim_m3_1 l=2e+06u w=2e+06u
X177 VDD.t331 sky130_asc_pfet_01v8_lvt_60_0/GATE.t98 sky130_asc_pfet_01v8_lvt_60_1/DRAIN.t40 VDD.t330 sky130_fd_pr__pfet_01v8_lvt ad=0p pd=0u as=0p ps=0u w=6.45e+06u l=2e+06u
X178 VSS.t4 a_26159_9587# VSS sky130_fd_pr__res_xhigh_po w=2.85e+06u l=1.075e+07u
X179 VSS.t146 sky130_asc_pfet_01v8_lvt_60_2/DRAIN sky130_fd_pr__cap_mim_m3_1 l=2e+06u w=2e+06u
X180 sky130_asc_pfet_01v8_lvt_60_0/GATE.t40 VDD.t229 sky130_fd_pr__cap_mim_m3_1 l=2e+06u w=2e+06u
X181 sky130_asc_pfet_01v8_lvt_60_1/DRAIN.t39 sky130_asc_pfet_01v8_lvt_60_0/GATE.t99 VDD.t329 VDD.t328 sky130_fd_pr__pfet_01v8_lvt ad=0p pd=0u as=0p ps=0u w=6.45e+06u l=2e+06u
X182 sky130_asc_pfet_01v8_lvt_60_0/GATE.t51 VDD.t325 sky130_fd_pr__cap_mim_m3_1 l=2e+06u w=2e+06u
X183 VSS VSS.t66 sky130_asc_res_xhigh_po_2p85_1_19/Rout sky130_fd_pr__pnp_05v5_W3p40L3p40
X184 VSS.t148 sky130_asc_pfet_01v8_lvt_60_2/DRAIN sky130_fd_pr__cap_mim_m3_1 l=2e+06u w=2e+06u
X185 sky130_asc_res_xhigh_po_2p85_1_9/Rin a_15392_13347.t1 VSS sky130_fd_pr__res_xhigh_po w=2.85e+06u l=7.88e+06u
X186 vbg.t51 sky130_asc_pfet_01v8_lvt_60_0/GATE.t100 VDD.t327 VDD.t326 sky130_fd_pr__pfet_01v8_lvt ad=0p pd=0u as=0p ps=0u w=6.45e+06u l=2e+06u
X187 VDD.t324 sky130_asc_pfet_01v8_lvt_60_0/GATE.t101 vbg.t50 VDD.t323 sky130_fd_pr__pfet_01v8_lvt ad=0p pd=0u as=0p ps=0u w=6.45e+06u l=2e+06u
X188 sky130_asc_nfet_01v8_lvt_1_1/DRAIN.t8 sky130_asc_pfet_01v8_lvt_60_2/DRAIN sky130_asc_pfet_01v8_lvt_60_0/GATE.t17 VSS sky130_fd_pr__nfet_01v8_lvt ad=0p pd=0u as=0p ps=0u w=4e+06u l=2e+06u
X189 VSS.t149 sky130_asc_pfet_01v8_lvt_60_2/DRAIN sky130_fd_pr__cap_mim_m3_1 l=2e+06u w=2e+06u
X190 sky130_asc_pfet_01v8_lvt_60_0/GATE.t43 VDD.t312 sky130_fd_pr__cap_mim_m3_1 l=2e+06u w=2e+06u
X191 sky130_asc_pfet_01v8_lvt_60_1/DRAIN.t38 sky130_asc_pfet_01v8_lvt_60_0/GATE.t102 VDD.t322 VDD.t321 sky130_fd_pr__pfet_01v8_lvt ad=0p pd=0u as=0p ps=0u w=6.45e+06u l=2e+06u
X192 sky130_asc_pfet_01v8_lvt_60_2/DRAIN sky130_asc_pfet_01v8_lvt_60_0/GATE.t103 VDD.t318 VDD.t317 sky130_fd_pr__pfet_01v8_lvt ad=0p pd=0u as=0p ps=0u w=6.45e+06u l=2e+06u
X193 VSS.t150 sky130_asc_pfet_01v8_lvt_60_2/DRAIN sky130_fd_pr__cap_mim_m3_1 l=2e+06u w=2e+06u
X194 sky130_asc_res_xhigh_po_2p85_1_5/Rout.t0 a_12648_17107.t0 VSS sky130_fd_pr__res_xhigh_po w=2.85e+06u l=7.88e+06u
X195 VSS.t151 sky130_asc_pfet_01v8_lvt_60_2/DRAIN sky130_fd_pr__cap_mim_m3_1 l=2e+06u w=2e+06u
X196 sky130_asc_pfet_01v8_lvt_60_1/DRAIN.t37 sky130_asc_pfet_01v8_lvt_60_0/GATE.t104 VDD.t320 VDD.t319 sky130_fd_pr__pfet_01v8_lvt ad=0p pd=0u as=0p ps=0u w=6.45e+06u l=2e+06u
X197 sky130_asc_pfet_01v8_lvt_60_1/DRAIN.t36 sky130_asc_pfet_01v8_lvt_60_0/GATE.t105 VDD.t316 VDD.t315 sky130_fd_pr__pfet_01v8_lvt ad=0p pd=0u as=0p ps=0u w=6.45e+06u l=2e+06u
X198 sky130_asc_pfet_01v8_lvt_60_0/GATE.t106 VDD.t144 sky130_fd_pr__cap_mim_m3_1 l=2e+06u w=2e+06u
X199 VSS.t152 sky130_asc_pfet_01v8_lvt_60_2/DRAIN sky130_fd_pr__cap_mim_m3_1 l=2e+06u w=2e+06u
X200 VDD.t314 sky130_asc_pfet_01v8_lvt_60_0/GATE.t107 sky130_asc_pfet_01v8_lvt_60_2/DRAIN VDD.t313 sky130_fd_pr__pfet_01v8_lvt ad=0p pd=0u as=0p ps=0u w=6.45e+06u l=2e+06u
X201 sky130_asc_pfet_01v8_lvt_60_0/GATE.t26 VDD.t23 sky130_fd_pr__cap_mim_m3_1 l=2e+06u w=2e+06u
X202 sky130_asc_pfet_01v8_lvt_60_1/DRAIN.t35 sky130_asc_pfet_01v8_lvt_60_0/GATE.t108 VDD.t311 VDD.t310 sky130_fd_pr__pfet_01v8_lvt ad=0p pd=0u as=0p ps=0u w=6.45e+06u l=2e+06u
X203 sky130_asc_pfet_01v8_lvt_60_0/GATE.t38 VDD.t22 sky130_fd_pr__cap_mim_m3_1 l=2e+06u w=2e+06u
X204 sky130_asc_pfet_01v8_lvt_60_0/GATE.t93 VDD.t21 sky130_fd_pr__cap_mim_m3_1 l=2e+06u w=2e+06u
X205 sky130_asc_res_xhigh_po_2p85_1_12/Rin.t0 a_39892_9587.t1 VSS sky130_fd_pr__res_xhigh_po w=2.85e+06u l=7.88e+06u
X206 VSS.t153 sky130_asc_pfet_01v8_lvt_60_2/DRAIN sky130_fd_pr__cap_mim_m3_1 l=2e+06u w=2e+06u
X207 sky130_asc_cap_mim_m3_1_3/Cout VDD.t20 sky130_fd_pr__cap_mim_m3_1 l=2e+06u w=2e+06u
X208 sky130_asc_pfet_01v8_lvt_60_0/GATE.t109 VDD.t202 sky130_fd_pr__cap_mim_m3_1 l=2e+06u w=2e+06u
X209 VSS.t154 sky130_asc_pfet_01v8_lvt_60_2/DRAIN sky130_fd_pr__cap_mim_m3_1 l=2e+06u w=2e+06u
X210 sky130_asc_pfet_01v8_lvt_60_0/GATE.t54 VDD.t309 sky130_fd_pr__cap_mim_m3_1 l=2e+06u w=2e+06u
X211 sky130_asc_pfet_01v8_lvt_60_1/DRAIN.t0 a_42146_28387# VSS sky130_fd_pr__res_xhigh_po w=2.85e+06u l=7.88e+06u
X212 sky130_asc_pfet_01v8_lvt_60_1/DRAIN.t34 sky130_asc_pfet_01v8_lvt_60_0/GATE.t110 VDD.t308 VDD.t307 sky130_fd_pr__pfet_01v8_lvt ad=0p pd=0u as=0p ps=0u w=6.45e+06u l=2e+06u
X213 VSS.t155 sky130_asc_pfet_01v8_lvt_60_2/DRAIN sky130_fd_pr__cap_mim_m3_1 l=2e+06u w=2e+06u
X214 VSS.t156 sky130_asc_pfet_01v8_lvt_60_2/DRAIN sky130_fd_pr__cap_mim_m3_1 l=2e+06u w=2e+06u
X215 sky130_asc_pfet_01v8_lvt_60_0/GATE.t55 VDD.t304 sky130_fd_pr__cap_mim_m3_1 l=2e+06u w=2e+06u
X216 VSS.t157 sky130_asc_pfet_01v8_lvt_60_2/DRAIN sky130_fd_pr__cap_mim_m3_1 l=2e+06u w=2e+06u
X217 VSS VSS.t64 sky130_asc_res_xhigh_po_2p85_1_19/Rout sky130_fd_pr__pnp_05v5_W3p40L3p40
X218 VDD.t306 sky130_asc_pfet_01v8_lvt_60_0/GATE.t111 sky130_asc_pfet_01v8_lvt_60_1/DRAIN.t33 VDD.t305 sky130_fd_pr__pfet_01v8_lvt ad=0p pd=0u as=0p ps=0u w=6.45e+06u l=2e+06u
X219 VDD.t303 sky130_asc_pfet_01v8_lvt_60_0/GATE.t112 vbg.t49 VDD.t302 sky130_fd_pr__pfet_01v8_lvt ad=0p pd=0u as=0p ps=0u w=6.45e+06u l=2e+06u
X220 sky130_asc_pfet_01v8_lvt_60_1/DRAIN.t32 sky130_asc_pfet_01v8_lvt_60_0/GATE.t113 VDD.t301 VDD.t300 sky130_fd_pr__pfet_01v8_lvt ad=0p pd=0u as=0p ps=0u w=6.45e+06u l=2e+06u
X221 VSS.t159 sky130_asc_pfet_01v8_lvt_60_2/DRAIN sky130_fd_pr__cap_mim_m3_1 l=2e+06u w=2e+06u
X222 VSS.t160 sky130_asc_pfet_01v8_lvt_60_2/DRAIN sky130_fd_pr__cap_mim_m3_1 l=2e+06u w=2e+06u
X223 sky130_asc_pfet_01v8_lvt_60_1/DRAIN.t31 sky130_asc_pfet_01v8_lvt_60_0/GATE.t114 VDD.t299 VDD.t298 sky130_fd_pr__pfet_01v8_lvt ad=0p pd=0u as=0p ps=0u w=6.45e+06u l=2e+06u
X224 VSS.t161 sky130_asc_pfet_01v8_lvt_60_2/DRAIN sky130_fd_pr__cap_mim_m3_1 l=2e+06u w=2e+06u
X225 VDD.t297 sky130_asc_pfet_01v8_lvt_60_0/GATE.t115 sky130_asc_pfet_01v8_lvt_60_2/DRAIN VDD.t296 sky130_fd_pr__pfet_01v8_lvt ad=0p pd=0u as=0p ps=0u w=6.45e+06u l=2e+06u
X226 VSS VSS.t62 sky130_asc_res_xhigh_po_2p85_1_19/Rout sky130_fd_pr__pnp_05v5_W3p40L3p40
X227 VDD.t295 sky130_asc_pfet_01v8_lvt_60_0/GATE.t116 sky130_asc_pfet_01v8_lvt_60_1/DRAIN.t30 VDD.t294 sky130_fd_pr__pfet_01v8_lvt ad=0p pd=0u as=0p ps=0u w=6.45e+06u l=2e+06u
X228 sky130_asc_res_xhigh_po_2p85_1_29/Rout a_28916_9587.t0 VSS sky130_fd_pr__res_xhigh_po w=2.85e+06u l=7.88e+06u
X229 VSS.t163 sky130_asc_pfet_01v8_lvt_60_2/DRAIN sky130_fd_pr__cap_mim_m3_1 l=2e+06u w=2e+06u
X230 VSS.t164 sky130_asc_pfet_01v8_lvt_60_2/DRAIN sky130_fd_pr__cap_mim_m3_1 l=2e+06u w=2e+06u
X231 sky130_asc_res_xhigh_po_2p85_1_18/Rout.t0 a_41264_17107.t1 VSS sky130_fd_pr__res_xhigh_po w=2.85e+06u l=7.88e+06u
X232 VSS VSS.t60 sky130_asc_res_xhigh_po_2p85_1_19/Rout sky130_fd_pr__pnp_05v5_W3p40L3p40
X233 VSS VSS.t58 sky130_asc_res_xhigh_po_2p85_1_19/Rout sky130_fd_pr__pnp_05v5_W3p40L3p40
X234 VSS.t167 sky130_asc_pfet_01v8_lvt_60_2/DRAIN sky130_fd_pr__cap_mim_m3_1 l=2e+06u w=2e+06u
X235 VDD.t293 sky130_asc_pfet_01v8_lvt_60_0/GATE.t117 vbg.t48 VDD.t292 sky130_fd_pr__pfet_01v8_lvt ad=0p pd=0u as=0p ps=0u w=6.45e+06u l=2e+06u
X236 sky130_asc_pfet_01v8_lvt_60_1/DRAIN.t29 sky130_asc_pfet_01v8_lvt_60_0/GATE.t118 VDD.t291 VDD.t290 sky130_fd_pr__pfet_01v8_lvt ad=0p pd=0u as=0p ps=0u w=6.45e+06u l=2e+06u
X237 vbg.t47 sky130_asc_pfet_01v8_lvt_60_0/GATE.t119 VDD.t289 VDD.t288 sky130_fd_pr__pfet_01v8_lvt ad=0p pd=0u as=0p ps=0u w=6.45e+06u l=2e+06u
X238 VSS.t168 sky130_asc_pfet_01v8_lvt_60_2/DRAIN sky130_fd_pr__cap_mim_m3_1 l=2e+06u w=2e+06u
X239 sky130_asc_pfet_01v8_lvt_6_1/DRAIN.t20 sky130_asc_pfet_01v8_lvt_6_1/DRAIN.t19 VDD.t5 VDD.t4 sky130_fd_pr__pfet_01v8_lvt ad=0p pd=0u as=0p ps=0u w=6.45e+06u l=2e+06u
X240 VSS VSS.t56 sky130_asc_res_xhigh_po_2p85_1_19/Rout sky130_fd_pr__pnp_05v5_W3p40L3p40
X241 sky130_asc_res_xhigh_po_2p85_1_26/Rin.t0 a_19606_5827# VSS sky130_fd_pr__res_xhigh_po w=2.85e+06u l=7.88e+06u
X242 VDD.t493 sky130_asc_pfet_01v8_lvt_6_1/DRAIN.t17 sky130_asc_pfet_01v8_lvt_6_1/DRAIN.t18 VDD.t492 sky130_fd_pr__pfet_01v8_lvt ad=0p pd=0u as=0p ps=0u w=6.45e+06u l=2e+06u