* NGSPICE file created from bgr_top.ext - technology: sky130A

.subckt sky130_asc_res_xhigh_po_2p85_1 Rin Rout VPWR VGND a_2148_115#
X0 Rin a_2148_115# VGND sky130_fd_pr__res_xhigh_po w=2.85e+06u l=7.88e+06u
X1 Rout a_2148_115# VGND sky130_fd_pr__res_xhigh_po w=2.85e+06u l=7.88e+06u
C0 VPWR Rout 0.03fF
C1 a_2148_115# Rout 0.01fF
C2 Rin Rout 0.22fF
C3 a_2148_115# VPWR 0.38fF
C4 Rin VPWR 0.32fF
C5 a_2148_115# Rin 0.02fF
C6 VPWR VGND 1.84fF
C7 Rout VGND 1.42fF
C8 Rin VGND 0.89fF
C9 a_2148_115# VGND 2.65fF
.ends

.subckt sky130_asc_pfet_01v8_lvt_60 GATE SOURCE DRAIN VGND VPWR VSUBS
X0 SOURCE GATE DRAIN VPWR sky130_fd_pr__pfet_01v8_lvt ad=5.6115e+13p pd=4.044e+08u as=5.79855e+13p ps=4.1788e+08u w=6.45e+06u l=2e+06u
X1 SOURCE GATE DRAIN VPWR sky130_fd_pr__pfet_01v8_lvt ad=0p pd=0u as=0p ps=0u w=6.45e+06u l=2e+06u
X2 SOURCE GATE DRAIN VPWR sky130_fd_pr__pfet_01v8_lvt ad=0p pd=0u as=0p ps=0u w=6.45e+06u l=2e+06u
X3 DRAIN GATE SOURCE VPWR sky130_fd_pr__pfet_01v8_lvt ad=0p pd=0u as=0p ps=0u w=6.45e+06u l=2e+06u
X4 DRAIN GATE SOURCE VPWR sky130_fd_pr__pfet_01v8_lvt ad=0p pd=0u as=0p ps=0u w=6.45e+06u l=2e+06u
X5 SOURCE GATE DRAIN VPWR sky130_fd_pr__pfet_01v8_lvt ad=0p pd=0u as=0p ps=0u w=6.45e+06u l=2e+06u
X6 DRAIN GATE SOURCE VPWR sky130_fd_pr__pfet_01v8_lvt ad=0p pd=0u as=0p ps=0u w=6.45e+06u l=2e+06u
X7 SOURCE GATE DRAIN VPWR sky130_fd_pr__pfet_01v8_lvt ad=0p pd=0u as=0p ps=0u w=6.45e+06u l=2e+06u
X8 DRAIN GATE SOURCE VPWR sky130_fd_pr__pfet_01v8_lvt ad=0p pd=0u as=0p ps=0u w=6.45e+06u l=2e+06u
X9 DRAIN GATE SOURCE VPWR sky130_fd_pr__pfet_01v8_lvt ad=0p pd=0u as=0p ps=0u w=6.45e+06u l=2e+06u
X10 SOURCE GATE DRAIN VPWR sky130_fd_pr__pfet_01v8_lvt ad=0p pd=0u as=0p ps=0u w=6.45e+06u l=2e+06u
X11 DRAIN GATE SOURCE VPWR sky130_fd_pr__pfet_01v8_lvt ad=0p pd=0u as=0p ps=0u w=6.45e+06u l=2e+06u
X12 SOURCE GATE DRAIN VPWR sky130_fd_pr__pfet_01v8_lvt ad=0p pd=0u as=0p ps=0u w=6.45e+06u l=2e+06u
X13 SOURCE GATE DRAIN VPWR sky130_fd_pr__pfet_01v8_lvt ad=0p pd=0u as=0p ps=0u w=6.45e+06u l=2e+06u
X14 DRAIN GATE SOURCE VPWR sky130_fd_pr__pfet_01v8_lvt ad=0p pd=0u as=0p ps=0u w=6.45e+06u l=2e+06u
X15 DRAIN GATE SOURCE VPWR sky130_fd_pr__pfet_01v8_lvt ad=0p pd=0u as=0p ps=0u w=6.45e+06u l=2e+06u
X16 SOURCE GATE DRAIN VPWR sky130_fd_pr__pfet_01v8_lvt ad=0p pd=0u as=0p ps=0u w=6.45e+06u l=2e+06u
X17 DRAIN GATE SOURCE VPWR sky130_fd_pr__pfet_01v8_lvt ad=0p pd=0u as=0p ps=0u w=6.45e+06u l=2e+06u
X18 SOURCE GATE DRAIN VPWR sky130_fd_pr__pfet_01v8_lvt ad=0p pd=0u as=0p ps=0u w=6.45e+06u l=2e+06u
X19 SOURCE GATE DRAIN VPWR sky130_fd_pr__pfet_01v8_lvt ad=0p pd=0u as=0p ps=0u w=6.45e+06u l=2e+06u
X20 DRAIN GATE SOURCE VPWR sky130_fd_pr__pfet_01v8_lvt ad=0p pd=0u as=0p ps=0u w=6.45e+06u l=2e+06u
X21 DRAIN GATE SOURCE VPWR sky130_fd_pr__pfet_01v8_lvt ad=0p pd=0u as=0p ps=0u w=6.45e+06u l=2e+06u
X22 SOURCE GATE DRAIN VPWR sky130_fd_pr__pfet_01v8_lvt ad=0p pd=0u as=0p ps=0u w=6.45e+06u l=2e+06u
X23 DRAIN GATE SOURCE VPWR sky130_fd_pr__pfet_01v8_lvt ad=0p pd=0u as=0p ps=0u w=6.45e+06u l=2e+06u
X24 DRAIN GATE SOURCE VPWR sky130_fd_pr__pfet_01v8_lvt ad=0p pd=0u as=0p ps=0u w=6.45e+06u l=2e+06u
X25 SOURCE GATE DRAIN VPWR sky130_fd_pr__pfet_01v8_lvt ad=0p pd=0u as=0p ps=0u w=6.45e+06u l=2e+06u
X26 SOURCE GATE DRAIN VPWR sky130_fd_pr__pfet_01v8_lvt ad=0p pd=0u as=0p ps=0u w=6.45e+06u l=2e+06u
X27 DRAIN GATE SOURCE VPWR sky130_fd_pr__pfet_01v8_lvt ad=0p pd=0u as=0p ps=0u w=6.45e+06u l=2e+06u
X28 DRAIN GATE SOURCE VPWR sky130_fd_pr__pfet_01v8_lvt ad=0p pd=0u as=0p ps=0u w=6.45e+06u l=2e+06u
X29 SOURCE GATE DRAIN VPWR sky130_fd_pr__pfet_01v8_lvt ad=0p pd=0u as=0p ps=0u w=6.45e+06u l=2e+06u
X30 DRAIN GATE SOURCE VPWR sky130_fd_pr__pfet_01v8_lvt ad=0p pd=0u as=0p ps=0u w=6.45e+06u l=2e+06u
X31 SOURCE GATE DRAIN VPWR sky130_fd_pr__pfet_01v8_lvt ad=0p pd=0u as=0p ps=0u w=6.45e+06u l=2e+06u
X32 DRAIN GATE SOURCE VPWR sky130_fd_pr__pfet_01v8_lvt ad=0p pd=0u as=0p ps=0u w=6.45e+06u l=2e+06u
X33 DRAIN GATE SOURCE VPWR sky130_fd_pr__pfet_01v8_lvt ad=0p pd=0u as=0p ps=0u w=6.45e+06u l=2e+06u
X34 SOURCE GATE DRAIN VPWR sky130_fd_pr__pfet_01v8_lvt ad=0p pd=0u as=0p ps=0u w=6.45e+06u l=2e+06u
X35 SOURCE GATE DRAIN VPWR sky130_fd_pr__pfet_01v8_lvt ad=0p pd=0u as=0p ps=0u w=6.45e+06u l=2e+06u
X36 DRAIN GATE SOURCE VPWR sky130_fd_pr__pfet_01v8_lvt ad=0p pd=0u as=0p ps=0u w=6.45e+06u l=2e+06u
X37 SOURCE GATE DRAIN VPWR sky130_fd_pr__pfet_01v8_lvt ad=0p pd=0u as=0p ps=0u w=6.45e+06u l=2e+06u
X38 DRAIN GATE SOURCE VPWR sky130_fd_pr__pfet_01v8_lvt ad=0p pd=0u as=0p ps=0u w=6.45e+06u l=2e+06u
X39 SOURCE GATE DRAIN VPWR sky130_fd_pr__pfet_01v8_lvt ad=0p pd=0u as=0p ps=0u w=6.45e+06u l=2e+06u
X40 DRAIN GATE SOURCE VPWR sky130_fd_pr__pfet_01v8_lvt ad=0p pd=0u as=0p ps=0u w=6.45e+06u l=2e+06u
X41 DRAIN GATE SOURCE VPWR sky130_fd_pr__pfet_01v8_lvt ad=0p pd=0u as=0p ps=0u w=6.45e+06u l=2e+06u
X42 SOURCE GATE DRAIN VPWR sky130_fd_pr__pfet_01v8_lvt ad=0p pd=0u as=0p ps=0u w=6.45e+06u l=2e+06u
X43 SOURCE GATE DRAIN VPWR sky130_fd_pr__pfet_01v8_lvt ad=0p pd=0u as=0p ps=0u w=6.45e+06u l=2e+06u
X44 DRAIN GATE SOURCE VPWR sky130_fd_pr__pfet_01v8_lvt ad=0p pd=0u as=0p ps=0u w=6.45e+06u l=2e+06u
X45 DRAIN GATE SOURCE VPWR sky130_fd_pr__pfet_01v8_lvt ad=0p pd=0u as=0p ps=0u w=6.45e+06u l=2e+06u
X46 SOURCE GATE DRAIN VPWR sky130_fd_pr__pfet_01v8_lvt ad=0p pd=0u as=0p ps=0u w=6.45e+06u l=2e+06u
X47 SOURCE GATE DRAIN VPWR sky130_fd_pr__pfet_01v8_lvt ad=0p pd=0u as=0p ps=0u w=6.45e+06u l=2e+06u
X48 SOURCE GATE DRAIN VPWR sky130_fd_pr__pfet_01v8_lvt ad=0p pd=0u as=0p ps=0u w=6.45e+06u l=2e+06u
X49 DRAIN GATE SOURCE VPWR sky130_fd_pr__pfet_01v8_lvt ad=0p pd=0u as=0p ps=0u w=6.45e+06u l=2e+06u
X50 DRAIN GATE SOURCE VPWR sky130_fd_pr__pfet_01v8_lvt ad=0p pd=0u as=0p ps=0u w=6.45e+06u l=2e+06u
X51 SOURCE GATE DRAIN VPWR sky130_fd_pr__pfet_01v8_lvt ad=0p pd=0u as=0p ps=0u w=6.45e+06u l=2e+06u
X52 SOURCE GATE DRAIN VPWR sky130_fd_pr__pfet_01v8_lvt ad=0p pd=0u as=0p ps=0u w=6.45e+06u l=2e+06u
X53 DRAIN GATE SOURCE VPWR sky130_fd_pr__pfet_01v8_lvt ad=0p pd=0u as=0p ps=0u w=6.45e+06u l=2e+06u
X54 DRAIN GATE SOURCE VPWR sky130_fd_pr__pfet_01v8_lvt ad=0p pd=0u as=0p ps=0u w=6.45e+06u l=2e+06u
X55 DRAIN GATE SOURCE VPWR sky130_fd_pr__pfet_01v8_lvt ad=0p pd=0u as=0p ps=0u w=6.45e+06u l=2e+06u
X56 SOURCE GATE DRAIN VPWR sky130_fd_pr__pfet_01v8_lvt ad=0p pd=0u as=0p ps=0u w=6.45e+06u l=2e+06u
X57 SOURCE GATE DRAIN VPWR sky130_fd_pr__pfet_01v8_lvt ad=0p pd=0u as=0p ps=0u w=6.45e+06u l=2e+06u
X58 SOURCE GATE DRAIN VPWR sky130_fd_pr__pfet_01v8_lvt ad=0p pd=0u as=0p ps=0u w=6.45e+06u l=2e+06u
X59 DRAIN GATE SOURCE VPWR sky130_fd_pr__pfet_01v8_lvt ad=0p pd=0u as=0p ps=0u w=6.45e+06u l=2e+06u
C0 VGND VPWR 0.27fF
C1 SOURCE VPWR 12.25fF
C2 GATE DRAIN 37.97fF
C3 VGND SOURCE 0.44fF
C4 GATE VPWR 18.05fF
C5 VPWR DRAIN 2.15fF
C6 GATE VGND 12.95fF
C7 VGND DRAIN 0.62fF
C8 GATE SOURCE 19.68fF
C9 SOURCE DRAIN 18.29fF
C10 VGND VSUBS 13.68fF
C11 SOURCE VSUBS -0.31fF
C12 DRAIN VSUBS 1.67fF
C13 GATE VSUBS 24.58fF
C14 VPWR VSUBS 147.85fF
.ends

.subckt sky130_asc_pnp_05v5_W3p40L3p40_7 sky130_fd_pr__rf_pnp_05v5_W3p40L3p40_5/Emitter
+ sky130_fd_pr__rf_pnp_05v5_W3p40L3p40_5/Collector sky130_fd_pr__rf_pnp_05v5_W3p40L3p40_5/Base
+ sky130_fd_pr__rf_pnp_05v5_W3p40L3p40_4/Emitter sky130_fd_pr__rf_pnp_05v5_W3p40L3p40_4/Collector
+ sky130_fd_pr__rf_pnp_05v5_W3p40L3p40_4/Base sky130_fd_pr__rf_pnp_05v5_W3p40L3p40_3/Emitter
+ sky130_fd_pr__rf_pnp_05v5_W3p40L3p40_3/Collector sky130_fd_pr__rf_pnp_05v5_W3p40L3p40_3/Base
+ sky130_fd_pr__rf_pnp_05v5_W3p40L3p40_2/Emitter sky130_fd_pr__rf_pnp_05v5_W3p40L3p40_2/Collector
+ sky130_fd_pr__rf_pnp_05v5_W3p40L3p40_2/Base sky130_fd_pr__rf_pnp_05v5_W3p40L3p40_1/Emitter
+ sky130_fd_pr__rf_pnp_05v5_W3p40L3p40_1/Collector sky130_fd_pr__rf_pnp_05v5_W3p40L3p40_1/Base
+ sky130_fd_pr__rf_pnp_05v5_W3p40L3p40_0/Emitter sky130_fd_pr__rf_pnp_05v5_W3p40L3p40_0/Collector
+ sky130_fd_pr__rf_pnp_05v5_W3p40L3p40_0/Base xm1/Emitter xm1/Collector xm1/Base Emitter
+ Base Collector VPWR VGND
X0 Collector Base Emitter sky130_fd_pr__pnp_05v5_W3p40L3p40
X1 Collector Base Emitter sky130_fd_pr__pnp_05v5_W3p40L3p40
X2 Collector Base Emitter sky130_fd_pr__pnp_05v5_W3p40L3p40
X3 Collector Base Emitter sky130_fd_pr__pnp_05v5_W3p40L3p40
X4 Collector Base Emitter sky130_fd_pr__pnp_05v5_W3p40L3p40
X5 Collector Base Emitter sky130_fd_pr__pnp_05v5_W3p40L3p40
X6 Collector Base Emitter sky130_fd_pr__pnp_05v5_W3p40L3p40
C0 Base VPWR 0.26fF
C1 VGND Emitter 2.20fF
C2 Base VGND 0.68fF
C3 Base Emitter 19.91fF
C4 VPWR Emitter 0.53fF
C5 VGND Collector 7.54fF
C6 VPWR Collector 8.99fF
C7 Emitter Collector 2.56fF
C8 Base Collector 20.68fF
.ends

.subckt sky130_asc_res_xhigh_po_2p85_2 Rin Rout VPWR a_2723_115# VGND
X0 Rout a_2723_115# VGND sky130_fd_pr__res_xhigh_po w=2.85e+06u l=1.075e+07u
X1 Rin a_2723_115# VGND sky130_fd_pr__res_xhigh_po w=2.85e+06u l=1.075e+07u
C0 Rin Rout 0.22fF
C1 VPWR Rin 0.32fF
C2 VPWR a_2723_115# 0.38fF
C3 VPWR Rout 0.03fF
C4 VPWR VGND 2.29fF
C5 Rout VGND 1.43fF
C6 Rin VGND 0.89fF
C7 a_2723_115# VGND 2.67fF
.ends

.subckt sky130_asc_pfet_01v8_lvt_12 GATE SOURCE DRAIN VGND VPWR VSUBS
X0 SOURCE GATE DRAIN VPWR sky130_fd_pr__pfet_01v8_lvt ad=1.1223e+13p pd=8.088e+07u as=1.30935e+13p ps=9.436e+07u w=6.45e+06u l=2e+06u
X1 SOURCE GATE DRAIN VPWR sky130_fd_pr__pfet_01v8_lvt ad=0p pd=0u as=0p ps=0u w=6.45e+06u l=2e+06u
X2 DRAIN GATE SOURCE VPWR sky130_fd_pr__pfet_01v8_lvt ad=0p pd=0u as=0p ps=0u w=6.45e+06u l=2e+06u
X3 DRAIN GATE SOURCE VPWR sky130_fd_pr__pfet_01v8_lvt ad=0p pd=0u as=0p ps=0u w=6.45e+06u l=2e+06u
X4 SOURCE GATE DRAIN VPWR sky130_fd_pr__pfet_01v8_lvt ad=0p pd=0u as=0p ps=0u w=6.45e+06u l=2e+06u
X5 DRAIN GATE SOURCE VPWR sky130_fd_pr__pfet_01v8_lvt ad=0p pd=0u as=0p ps=0u w=6.45e+06u l=2e+06u
X6 DRAIN GATE SOURCE VPWR sky130_fd_pr__pfet_01v8_lvt ad=0p pd=0u as=0p ps=0u w=6.45e+06u l=2e+06u
X7 SOURCE GATE DRAIN VPWR sky130_fd_pr__pfet_01v8_lvt ad=0p pd=0u as=0p ps=0u w=6.45e+06u l=2e+06u
X8 SOURCE GATE DRAIN VPWR sky130_fd_pr__pfet_01v8_lvt ad=0p pd=0u as=0p ps=0u w=6.45e+06u l=2e+06u
X9 DRAIN GATE SOURCE VPWR sky130_fd_pr__pfet_01v8_lvt ad=0p pd=0u as=0p ps=0u w=6.45e+06u l=2e+06u
X10 DRAIN GATE SOURCE VPWR sky130_fd_pr__pfet_01v8_lvt ad=0p pd=0u as=0p ps=0u w=6.45e+06u l=2e+06u
X11 SOURCE GATE DRAIN VPWR sky130_fd_pr__pfet_01v8_lvt ad=0p pd=0u as=0p ps=0u w=6.45e+06u l=2e+06u
C0 SOURCE GATE 3.72fF
C1 DRAIN VGND 0.14fF
C2 DRAIN VPWR 0.68fF
C3 VGND VPWR 0.06fF
C4 DRAIN SOURCE 3.66fF
C5 SOURCE VGND 0.09fF
C6 SOURCE VPWR 2.53fF
C7 DRAIN GATE 7.57fF
C8 VGND GATE 2.63fF
C9 VPWR GATE 3.74fF
C10 VGND VSUBS 2.89fF
C11 SOURCE VSUBS -0.02fF
C12 DRAIN VSUBS 1.10fF
C13 GATE VSUBS 5.10fF
C14 VPWR VSUBS 30.62fF
.ends

.subckt sky130_asc_nfet_01v8_lvt_9 GATE SOURCE DRAIN VPWR VGND
X0 SOURCE GATE DRAIN VGND sky130_fd_pr__nfet_01v8_lvt ad=5.8e+12p pd=4.29e+07u as=5.8e+12p ps=4.29e+07u w=4e+06u l=2e+06u
X1 DRAIN GATE SOURCE VGND sky130_fd_pr__nfet_01v8_lvt ad=0p pd=0u as=0p ps=0u w=4e+06u l=2e+06u
X2 SOURCE GATE DRAIN VGND sky130_fd_pr__nfet_01v8_lvt ad=0p pd=0u as=0p ps=0u w=4e+06u l=2e+06u
X3 DRAIN GATE SOURCE VGND sky130_fd_pr__nfet_01v8_lvt ad=0p pd=0u as=0p ps=0u w=4e+06u l=2e+06u
X4 SOURCE GATE DRAIN VGND sky130_fd_pr__nfet_01v8_lvt ad=0p pd=0u as=0p ps=0u w=4e+06u l=2e+06u
X5 DRAIN GATE SOURCE VGND sky130_fd_pr__nfet_01v8_lvt ad=0p pd=0u as=0p ps=0u w=4e+06u l=2e+06u
X6 SOURCE GATE DRAIN VGND sky130_fd_pr__nfet_01v8_lvt ad=0p pd=0u as=0p ps=0u w=4e+06u l=2e+06u
X7 SOURCE GATE DRAIN VGND sky130_fd_pr__nfet_01v8_lvt ad=0p pd=0u as=0p ps=0u w=4e+06u l=2e+06u
X8 DRAIN GATE SOURCE VGND sky130_fd_pr__nfet_01v8_lvt ad=0p pd=0u as=0p ps=0u w=4e+06u l=2e+06u
C0 SOURCE VPWR 1.27fF
C1 VPWR GATE 0.33fF
C2 SOURCE DRAIN 1.74fF
C3 DRAIN GATE 3.20fF
C4 DRAIN VPWR 0.09fF
C5 SOURCE GATE 1.81fF
C6 VPWR VGND 2.36fF
C7 SOURCE VGND 1.57fF
C8 DRAIN VGND 1.37fF
C9 GATE VGND 8.34fF
.ends

.subckt sky130_asc_pfet_01v8_lvt_6 GATE SOURCE DRAIN VGND VPWR VSUBS
X0 SOURCE GATE DRAIN VPWR sky130_fd_pr__pfet_01v8_lvt ad=5.6115e+12p pd=4.044e+07u as=7.482e+12p ps=5.392e+07u w=6.45e+06u l=2e+06u
X1 SOURCE GATE DRAIN VPWR sky130_fd_pr__pfet_01v8_lvt ad=0p pd=0u as=0p ps=0u w=6.45e+06u l=2e+06u
X2 DRAIN GATE SOURCE VPWR sky130_fd_pr__pfet_01v8_lvt ad=0p pd=0u as=0p ps=0u w=6.45e+06u l=2e+06u
X3 SOURCE GATE DRAIN VPWR sky130_fd_pr__pfet_01v8_lvt ad=0p pd=0u as=0p ps=0u w=6.45e+06u l=2e+06u
X4 DRAIN GATE SOURCE VPWR sky130_fd_pr__pfet_01v8_lvt ad=0p pd=0u as=0p ps=0u w=6.45e+06u l=2e+06u
X5 DRAIN GATE SOURCE VPWR sky130_fd_pr__pfet_01v8_lvt ad=0p pd=0u as=0p ps=0u w=6.45e+06u l=2e+06u
C0 VGND GATE 1.34fF
C1 DRAIN SOURCE 1.83fF
C2 VGND VPWR 0.04fF
C3 DRAIN GATE 3.77fF
C4 GATE SOURCE 1.72fF
C5 DRAIN VPWR 0.50fF
C6 VPWR SOURCE 1.34fF
C7 DRAIN VGND 0.08fF
C8 VGND SOURCE 0.04fF
C9 GATE VPWR 1.95fF
C10 VGND VSUBS 1.54fF
C11 SOURCE VSUBS 0.02fF
C12 DRAIN VSUBS 1.03fF
C13 GATE VSUBS 2.67fF
C14 VPWR VSUBS 15.96fF
.ends

.subckt sky130_asc_pnp_05v5_W3p40L3p40_1 xm1/Emitter xm1/Collector xm1/Base Emitter
+ Base Collector VPWR VGND
X0 Collector Base Emitter sky130_fd_pr__pnp_05v5_W3p40L3p40
C0 VGND Base 0.05fF
C1 VPWR Emitter 0.17fF
C2 Base Emitter 1.75fF
C3 Base VPWR 0.05fF
C4 VGND Emitter 0.17fF
C5 VGND Collector 1.07fF
C6 VPWR Collector 1.07fF
C7 Emitter Collector -0.06fF
C8 Base Collector 1.87fF
.ends

.subckt sky130_asc_cap_mim_m3_1 Cin Cout VPWR VGND VSUBS
X0 Cout Cin sky130_fd_pr__cap_mim_m3_1 l=2e+06u w=2e+06u
X1 Cout Cin sky130_fd_pr__cap_mim_m3_1 l=2e+06u w=2e+06u
X2 Cout Cin sky130_fd_pr__cap_mim_m3_1 l=2e+06u w=2e+06u
X3 Cout Cin sky130_fd_pr__cap_mim_m3_1 l=2e+06u w=2e+06u
X4 Cout Cin sky130_fd_pr__cap_mim_m3_1 l=2e+06u w=2e+06u
X5 Cout Cin sky130_fd_pr__cap_mim_m3_1 l=2e+06u w=2e+06u
X6 Cout Cin sky130_fd_pr__cap_mim_m3_1 l=2e+06u w=2e+06u
X7 Cout Cin sky130_fd_pr__cap_mim_m3_1 l=2e+06u w=2e+06u
X8 Cout Cin sky130_fd_pr__cap_mim_m3_1 l=2e+06u w=2e+06u
X9 Cout Cin sky130_fd_pr__cap_mim_m3_1 l=2e+06u w=2e+06u
X10 Cout Cin sky130_fd_pr__cap_mim_m3_1 l=2e+06u w=2e+06u
X11 Cout Cin sky130_fd_pr__cap_mim_m3_1 l=2e+06u w=2e+06u
X12 Cout Cin sky130_fd_pr__cap_mim_m3_1 l=2e+06u w=2e+06u
X13 Cout Cin sky130_fd_pr__cap_mim_m3_1 l=2e+06u w=2e+06u
X14 Cout Cin sky130_fd_pr__cap_mim_m3_1 l=2e+06u w=2e+06u
X15 Cout Cin sky130_fd_pr__cap_mim_m3_1 l=2e+06u w=2e+06u
X16 Cout Cin sky130_fd_pr__cap_mim_m3_1 l=2e+06u w=2e+06u
X17 Cout Cin sky130_fd_pr__cap_mim_m3_1 l=2e+06u w=2e+06u
X18 Cout Cin sky130_fd_pr__cap_mim_m3_1 l=2e+06u w=2e+06u
X19 Cout Cin sky130_fd_pr__cap_mim_m3_1 l=2e+06u w=2e+06u
C0 VGND Cout 0.68fF
C1 Cout VPWR 0.36fF
C2 VGND Cin 1.17fF
C3 Cin VPWR 1.68fF
C4 Cout Cin 17.04fF
C5 Cout VSUBS 2.42fF
C6 Cin VSUBS 5.27fF
C7 VGND VSUBS 6.57fF
C8 VPWR VSUBS 6.57fF
.ends

.subckt sky130_asc_pnp_05v5_W3p40L3p40_8 sky130_fd_pr__rf_pnp_05v5_W3p40L3p40_6/Emitter
+ sky130_fd_pr__rf_pnp_05v5_W3p40L3p40_6/Collector sky130_fd_pr__rf_pnp_05v5_W3p40L3p40_6/Base
+ sky130_fd_pr__rf_pnp_05v5_W3p40L3p40_5/Emitter sky130_fd_pr__rf_pnp_05v5_W3p40L3p40_5/Collector
+ sky130_fd_pr__rf_pnp_05v5_W3p40L3p40_5/Base sky130_fd_pr__rf_pnp_05v5_W3p40L3p40_4/Emitter
+ sky130_fd_pr__rf_pnp_05v5_W3p40L3p40_4/Collector sky130_fd_pr__rf_pnp_05v5_W3p40L3p40_4/Base
+ sky130_fd_pr__rf_pnp_05v5_W3p40L3p40_3/Emitter sky130_fd_pr__rf_pnp_05v5_W3p40L3p40_3/Collector
+ sky130_fd_pr__rf_pnp_05v5_W3p40L3p40_3/Base sky130_fd_pr__rf_pnp_05v5_W3p40L3p40_2/Emitter
+ sky130_fd_pr__rf_pnp_05v5_W3p40L3p40_2/Collector sky130_fd_pr__rf_pnp_05v5_W3p40L3p40_2/Base
+ sky130_fd_pr__rf_pnp_05v5_W3p40L3p40_1/Emitter sky130_fd_pr__rf_pnp_05v5_W3p40L3p40_1/Collector
+ sky130_fd_pr__rf_pnp_05v5_W3p40L3p40_1/Base sky130_fd_pr__rf_pnp_05v5_W3p40L3p40_0/Emitter
+ sky130_fd_pr__rf_pnp_05v5_W3p40L3p40_0/Collector sky130_fd_pr__rf_pnp_05v5_W3p40L3p40_0/Base
+ xm1/Emitter xm1/Collector xm1/Base Emitter Base Collector VPWR VGND
X0 Collector Base Emitter sky130_fd_pr__pnp_05v5_W3p40L3p40
X1 Collector Base Emitter sky130_fd_pr__pnp_05v5_W3p40L3p40
X2 Collector Base Emitter sky130_fd_pr__pnp_05v5_W3p40L3p40
X3 Collector Base Emitter sky130_fd_pr__pnp_05v5_W3p40L3p40
X4 Collector Base Emitter sky130_fd_pr__pnp_05v5_W3p40L3p40
X5 Collector Base Emitter sky130_fd_pr__pnp_05v5_W3p40L3p40
X6 Collector Base Emitter sky130_fd_pr__pnp_05v5_W3p40L3p40
X7 Collector Base Emitter sky130_fd_pr__pnp_05v5_W3p40L3p40
C0 Emitter VGND 2.53fF
C1 Base VPWR 0.29fF
C2 Base Emitter 22.84fF
C3 Emitter VPWR 0.61fF
C4 Base VGND 0.77fF
C5 VGND Collector 8.60fF
C6 VPWR Collector 10.27fF
C7 Emitter Collector 2.98fF
C8 Base Collector 23.69fF
.ends

.subckt sky130_asc_nfet_01v8_lvt_1 GATE SOURCE DRAIN VPWR VGND
X0 SOURCE GATE DRAIN VGND sky130_fd_pr__nfet_01v8_lvt ad=1.16e+12p pd=8.58e+06u as=1.16e+12p ps=8.58e+06u w=4e+06u l=2e+06u
C0 GATE VPWR 0.04fF
C1 DRAIN VPWR 0.01fF
C2 SOURCE VPWR 0.16fF
C3 DRAIN GATE 0.24fF
C4 GATE SOURCE 0.14fF
C5 DRAIN SOURCE 0.20fF
C6 VPWR VGND 0.41fF
C7 SOURCE VGND 0.63fF
C8 DRAIN VGND 0.60fF
C9 GATE VGND 1.30fF
.ends

.subckt bgr_top porst vbg VSS VDD
Xsky130_asc_res_xhigh_po_2p85_1_7 sky130_asc_res_xhigh_po_2p85_1_7/Rin sky130_asc_res_xhigh_po_2p85_1_6/Rin
+ VDD VSS sky130_asc_res_xhigh_po_2p85_1_7/a_2148_115# sky130_asc_res_xhigh_po_2p85_1
Xsky130_asc_res_xhigh_po_2p85_1_8 vbg sky130_asc_res_xhigh_po_2p85_1_7/Rin VDD VSS
+ sky130_asc_res_xhigh_po_2p85_1_8/a_2148_115# sky130_asc_res_xhigh_po_2p85_1
Xsky130_asc_res_xhigh_po_2p85_1_9 sky130_asc_res_xhigh_po_2p85_1_9/Rin sky130_asc_res_xhigh_po_2p85_2_0/Rin
+ VDD VSS sky130_asc_res_xhigh_po_2p85_1_9/a_2148_115# sky130_asc_res_xhigh_po_2p85_1
Xsky130_asc_pfet_01v8_lvt_60_0 sky130_asc_cap_mim_m3_1_4/Cout VDD vbg VSS VDD VSS
+ sky130_asc_pfet_01v8_lvt_60
Xsky130_asc_pfet_01v8_lvt_60_1 sky130_asc_cap_mim_m3_1_4/Cout VDD sky130_asc_nfet_01v8_lvt_9_2/GATE
+ VSS VDD VSS sky130_asc_pfet_01v8_lvt_60
Xsky130_asc_pfet_01v8_lvt_60_2 sky130_asc_cap_mim_m3_1_4/Cout VDD sky130_asc_cap_mim_m3_1_9/Cin
+ VSS VDD VSS sky130_asc_pfet_01v8_lvt_60
Xsky130_asc_res_xhigh_po_2p85_1_30 sky130_asc_cap_mim_m3_1_9/Cin sky130_asc_res_xhigh_po_2p85_1_29/Rin
+ VDD VSS sky130_asc_res_xhigh_po_2p85_1_30/a_2148_115# sky130_asc_res_xhigh_po_2p85_1
Xsky130_asc_res_xhigh_po_2p85_1_20 sky130_asc_nfet_01v8_lvt_9_2/GATE sky130_asc_res_xhigh_po_2p85_1_19/Rin
+ VDD VSS sky130_asc_res_xhigh_po_2p85_1_20/a_2148_115# sky130_asc_res_xhigh_po_2p85_1
Xsky130_asc_pnp_05v5_W3p40L3p40_7_0 sky130_asc_pnp_05v5_W3p40L3p40_7_0/sky130_fd_pr__rf_pnp_05v5_W3p40L3p40_5/Emitter
+ sky130_asc_pnp_05v5_W3p40L3p40_7_0/sky130_fd_pr__rf_pnp_05v5_W3p40L3p40_5/Collector
+ sky130_asc_pnp_05v5_W3p40L3p40_7_0/sky130_fd_pr__rf_pnp_05v5_W3p40L3p40_5/Base sky130_asc_pnp_05v5_W3p40L3p40_7_0/sky130_fd_pr__rf_pnp_05v5_W3p40L3p40_4/Emitter
+ sky130_asc_pnp_05v5_W3p40L3p40_7_0/sky130_fd_pr__rf_pnp_05v5_W3p40L3p40_4/Collector
+ sky130_asc_pnp_05v5_W3p40L3p40_7_0/sky130_fd_pr__rf_pnp_05v5_W3p40L3p40_4/Base sky130_asc_pnp_05v5_W3p40L3p40_7_0/sky130_fd_pr__rf_pnp_05v5_W3p40L3p40_3/Emitter
+ sky130_asc_pnp_05v5_W3p40L3p40_7_0/sky130_fd_pr__rf_pnp_05v5_W3p40L3p40_3/Collector
+ sky130_asc_pnp_05v5_W3p40L3p40_7_0/sky130_fd_pr__rf_pnp_05v5_W3p40L3p40_3/Base sky130_asc_res_xhigh_po_2p85_1_19/Rout
+ sky130_asc_pnp_05v5_W3p40L3p40_7_0/sky130_fd_pr__rf_pnp_05v5_W3p40L3p40_2/Collector
+ sky130_asc_pnp_05v5_W3p40L3p40_7_0/sky130_fd_pr__rf_pnp_05v5_W3p40L3p40_2/Base sky130_asc_res_xhigh_po_2p85_1_19/Rout
+ VSS VSS sky130_asc_res_xhigh_po_2p85_1_19/Rout VSS VSS sky130_asc_res_xhigh_po_2p85_1_19/Rout
+ VSS VSS sky130_asc_res_xhigh_po_2p85_1_19/Rout sky130_asc_pnp_05v5_W3p40L3p40_7_0/Base
+ VSS VDD VSS sky130_asc_pnp_05v5_W3p40L3p40_7
Xsky130_asc_res_xhigh_po_2p85_1_10 sky130_asc_res_xhigh_po_2p85_1_10/Rin sky130_asc_res_xhigh_po_2p85_1_9/Rin
+ VDD VSS sky130_asc_res_xhigh_po_2p85_1_10/a_2148_115# sky130_asc_res_xhigh_po_2p85_1
Xsky130_asc_res_xhigh_po_2p85_1_21 sky130_asc_res_xhigh_po_2p85_1_21/Rin sky130_asc_res_xhigh_po_2p85_2_1/Rin
+ VDD VSS sky130_asc_res_xhigh_po_2p85_1_21/a_2148_115# sky130_asc_res_xhigh_po_2p85_1
Xsky130_asc_res_xhigh_po_2p85_2_0 sky130_asc_res_xhigh_po_2p85_2_0/Rin VSS VDD sky130_asc_res_xhigh_po_2p85_2_0/a_2723_115#
+ VSS sky130_asc_res_xhigh_po_2p85_2
Xsky130_asc_res_xhigh_po_2p85_1_22 sky130_asc_res_xhigh_po_2p85_1_22/Rin sky130_asc_res_xhigh_po_2p85_1_21/Rin
+ VDD VSS sky130_asc_res_xhigh_po_2p85_1_22/a_2148_115# sky130_asc_res_xhigh_po_2p85_1
Xsky130_asc_res_xhigh_po_2p85_1_11 sky130_asc_res_xhigh_po_2p85_1_11/Rin sky130_asc_res_xhigh_po_2p85_1_10/Rin
+ VDD VSS sky130_asc_res_xhigh_po_2p85_1_11/a_2148_115# sky130_asc_res_xhigh_po_2p85_1
Xsky130_asc_res_xhigh_po_2p85_2_1 sky130_asc_res_xhigh_po_2p85_2_1/Rin VSS VDD sky130_asc_res_xhigh_po_2p85_2_1/a_2723_115#
+ VSS sky130_asc_res_xhigh_po_2p85_2
Xsky130_asc_res_xhigh_po_2p85_1_12 sky130_asc_res_xhigh_po_2p85_1_12/Rin sky130_asc_res_xhigh_po_2p85_1_11/Rin
+ VDD VSS sky130_asc_res_xhigh_po_2p85_1_12/a_2148_115# sky130_asc_res_xhigh_po_2p85_1
Xsky130_asc_res_xhigh_po_2p85_1_23 sky130_asc_res_xhigh_po_2p85_1_23/Rin sky130_asc_res_xhigh_po_2p85_1_22/Rin
+ VDD VSS sky130_asc_res_xhigh_po_2p85_1_23/a_2148_115# sky130_asc_res_xhigh_po_2p85_1
Xsky130_asc_res_xhigh_po_2p85_1_13 sky130_asc_res_xhigh_po_2p85_1_13/Rin sky130_asc_res_xhigh_po_2p85_1_12/Rin
+ VDD VSS sky130_asc_res_xhigh_po_2p85_1_13/a_2148_115# sky130_asc_res_xhigh_po_2p85_1
Xsky130_asc_res_xhigh_po_2p85_1_24 sky130_asc_res_xhigh_po_2p85_1_24/Rin sky130_asc_res_xhigh_po_2p85_1_23/Rin
+ VDD VSS sky130_asc_res_xhigh_po_2p85_1_24/a_2148_115# sky130_asc_res_xhigh_po_2p85_1
Xsky130_asc_pfet_01v8_lvt_12_0 VDD VDD sky130_asc_cap_mim_m3_1_9/Cin VSS VDD VSS sky130_asc_pfet_01v8_lvt_12
Xsky130_asc_res_xhigh_po_2p85_1_14 sky130_asc_res_xhigh_po_2p85_1_14/Rin sky130_asc_res_xhigh_po_2p85_1_13/Rin
+ VDD VSS sky130_asc_res_xhigh_po_2p85_1_14/a_2148_115# sky130_asc_res_xhigh_po_2p85_1
Xsky130_asc_res_xhigh_po_2p85_1_25 sky130_asc_res_xhigh_po_2p85_1_25/Rin sky130_asc_res_xhigh_po_2p85_1_24/Rin
+ VDD VSS sky130_asc_res_xhigh_po_2p85_1_25/a_2148_115# sky130_asc_res_xhigh_po_2p85_1
Xsky130_asc_pfet_01v8_lvt_12_1 sky130_asc_cap_mim_m3_1_4/Cout VDD sky130_asc_nfet_01v8_lvt_1_1/GATE
+ VSS VDD VSS sky130_asc_pfet_01v8_lvt_12
Xsky130_asc_res_xhigh_po_2p85_1_15 sky130_asc_res_xhigh_po_2p85_1_15/Rin sky130_asc_res_xhigh_po_2p85_1_14/Rin
+ VDD VSS sky130_asc_res_xhigh_po_2p85_1_15/a_2148_115# sky130_asc_res_xhigh_po_2p85_1
Xsky130_asc_res_xhigh_po_2p85_1_26 sky130_asc_res_xhigh_po_2p85_1_26/Rin sky130_asc_res_xhigh_po_2p85_1_25/Rin
+ VDD VSS sky130_asc_res_xhigh_po_2p85_1_26/a_2148_115# sky130_asc_res_xhigh_po_2p85_1
Xsky130_asc_res_xhigh_po_2p85_1_16 sky130_asc_res_xhigh_po_2p85_1_16/Rin sky130_asc_res_xhigh_po_2p85_1_15/Rin
+ VDD VSS sky130_asc_res_xhigh_po_2p85_1_16/a_2148_115# sky130_asc_res_xhigh_po_2p85_1
Xsky130_asc_res_xhigh_po_2p85_1_27 sky130_asc_res_xhigh_po_2p85_1_27/Rin sky130_asc_res_xhigh_po_2p85_1_26/Rin
+ VDD VSS sky130_asc_res_xhigh_po_2p85_1_27/a_2148_115# sky130_asc_res_xhigh_po_2p85_1
Xsky130_asc_res_xhigh_po_2p85_1_17 sky130_asc_res_xhigh_po_2p85_1_17/Rin sky130_asc_res_xhigh_po_2p85_1_16/Rin
+ VDD VSS sky130_asc_res_xhigh_po_2p85_1_17/a_2148_115# sky130_asc_res_xhigh_po_2p85_1
Xsky130_asc_res_xhigh_po_2p85_1_28 sky130_asc_res_xhigh_po_2p85_1_28/Rin sky130_asc_res_xhigh_po_2p85_1_27/Rin
+ VDD VSS sky130_asc_res_xhigh_po_2p85_1_28/a_2148_115# sky130_asc_res_xhigh_po_2p85_1
Xsky130_asc_nfet_01v8_lvt_9_0 porst VSS sky130_asc_cap_mim_m3_1_4/Cout VDD VSS sky130_asc_nfet_01v8_lvt_9
Xsky130_asc_res_xhigh_po_2p85_1_18 sky130_asc_nfet_01v8_lvt_9_2/GATE sky130_asc_res_xhigh_po_2p85_1_17/Rin
+ VDD VSS sky130_asc_res_xhigh_po_2p85_1_18/a_2148_115# sky130_asc_res_xhigh_po_2p85_1
Xsky130_asc_res_xhigh_po_2p85_1_29 sky130_asc_res_xhigh_po_2p85_1_29/Rin sky130_asc_res_xhigh_po_2p85_1_28/Rin
+ VDD VSS sky130_asc_res_xhigh_po_2p85_1_29/a_2148_115# sky130_asc_res_xhigh_po_2p85_1
Xsky130_asc_pfet_01v8_lvt_6_0 sky130_asc_pfet_01v8_lvt_6_1/GATE VDD sky130_asc_cap_mim_m3_1_4/Cout
+ VSS VDD VSS sky130_asc_pfet_01v8_lvt_6
Xsky130_asc_nfet_01v8_lvt_9_1 sky130_asc_cap_mim_m3_1_9/Cin sky130_asc_nfet_01v8_lvt_1_1/DRAIN
+ sky130_asc_cap_mim_m3_1_4/Cout VDD VSS sky130_asc_nfet_01v8_lvt_9
Xsky130_asc_pfet_01v8_lvt_6_1 sky130_asc_pfet_01v8_lvt_6_1/GATE VDD sky130_asc_pfet_01v8_lvt_6_1/GATE
+ VSS VDD VSS sky130_asc_pfet_01v8_lvt_6
Xsky130_asc_res_xhigh_po_2p85_1_19 sky130_asc_res_xhigh_po_2p85_1_19/Rin sky130_asc_res_xhigh_po_2p85_1_19/Rout
+ VDD VSS sky130_asc_res_xhigh_po_2p85_1_19/a_2148_115# sky130_asc_res_xhigh_po_2p85_1
Xsky130_asc_pnp_05v5_W3p40L3p40_1_0 sky130_asc_cap_mim_m3_1_9/Cin VSS VSS sky130_asc_cap_mim_m3_1_9/Cin
+ VSS VSS VDD VSS sky130_asc_pnp_05v5_W3p40L3p40_1
Xsky130_asc_nfet_01v8_lvt_9_2 sky130_asc_nfet_01v8_lvt_9_2/GATE sky130_asc_nfet_01v8_lvt_1_1/DRAIN
+ sky130_asc_pfet_01v8_lvt_6_1/GATE VDD VSS sky130_asc_nfet_01v8_lvt_9
Xsky130_asc_cap_mim_m3_1_0 VDD sky130_asc_cap_mim_m3_1_4/Cout VDD VSS VSS sky130_asc_cap_mim_m3_1
Xsky130_asc_cap_mim_m3_1_1 VDD sky130_asc_cap_mim_m3_1_4/Cout VDD VSS VSS sky130_asc_cap_mim_m3_1
Xsky130_asc_pnp_05v5_W3p40L3p40_8_0 sky130_asc_pnp_05v5_W3p40L3p40_8_0/sky130_fd_pr__rf_pnp_05v5_W3p40L3p40_6/Emitter
+ sky130_asc_pnp_05v5_W3p40L3p40_8_0/sky130_fd_pr__rf_pnp_05v5_W3p40L3p40_6/Base sky130_asc_pnp_05v5_W3p40L3p40_8_0/sky130_fd_pr__rf_pnp_05v5_W3p40L3p40_6/Base
+ sky130_asc_pnp_05v5_W3p40L3p40_8_0/sky130_fd_pr__rf_pnp_05v5_W3p40L3p40_5/Emitter
+ sky130_asc_pnp_05v5_W3p40L3p40_8_0/sky130_fd_pr__rf_pnp_05v5_W3p40L3p40_6/Base sky130_asc_pnp_05v5_W3p40L3p40_8_0/sky130_fd_pr__rf_pnp_05v5_W3p40L3p40_6/Base
+ sky130_asc_pnp_05v5_W3p40L3p40_8_0/sky130_fd_pr__rf_pnp_05v5_W3p40L3p40_4/Emitter
+ sky130_asc_pnp_05v5_W3p40L3p40_8_0/sky130_fd_pr__rf_pnp_05v5_W3p40L3p40_6/Base sky130_asc_pnp_05v5_W3p40L3p40_8_0/sky130_fd_pr__rf_pnp_05v5_W3p40L3p40_6/Base
+ sky130_asc_res_xhigh_po_2p85_1_19/Rout sky130_asc_pnp_05v5_W3p40L3p40_8_0/sky130_fd_pr__rf_pnp_05v5_W3p40L3p40_3/Collector
+ sky130_asc_pnp_05v5_W3p40L3p40_8_0/sky130_fd_pr__rf_pnp_05v5_W3p40L3p40_3/Base sky130_asc_res_xhigh_po_2p85_1_19/Rout
+ sky130_asc_pnp_05v5_W3p40L3p40_8_0/sky130_fd_pr__rf_pnp_05v5_W3p40L3p40_2/Collector
+ sky130_asc_pnp_05v5_W3p40L3p40_8_0/sky130_fd_pr__rf_pnp_05v5_W3p40L3p40_2/Base sky130_asc_res_xhigh_po_2p85_1_19/Rout
+ sky130_asc_pnp_05v5_W3p40L3p40_8_0/sky130_fd_pr__rf_pnp_05v5_W3p40L3p40_1/Collector
+ VSS sky130_asc_res_xhigh_po_2p85_1_19/Rout sky130_asc_pnp_05v5_W3p40L3p40_8_0/sky130_fd_pr__rf_pnp_05v5_W3p40L3p40_0/Collector
+ VSS sky130_asc_res_xhigh_po_2p85_1_19/Rout sky130_asc_pnp_05v5_W3p40L3p40_8_0/xm1/Collector
+ VSS sky130_asc_pnp_05v5_W3p40L3p40_8_0/Emitter sky130_asc_pnp_05v5_W3p40L3p40_8_0/Base
+ VSS VDD VSS sky130_asc_pnp_05v5_W3p40L3p40_8
Xsky130_asc_cap_mim_m3_1_2 VDD sky130_asc_cap_mim_m3_1_4/Cout VDD VSS VSS sky130_asc_cap_mim_m3_1
Xsky130_asc_pnp_05v5_W3p40L3p40_8_1 sky130_asc_pnp_05v5_W3p40L3p40_8_1/sky130_fd_pr__rf_pnp_05v5_W3p40L3p40_6/Emitter
+ sky130_asc_pnp_05v5_W3p40L3p40_8_1/sky130_fd_pr__rf_pnp_05v5_W3p40L3p40_6/Collector
+ sky130_asc_pnp_05v5_W3p40L3p40_8_1/sky130_fd_pr__rf_pnp_05v5_W3p40L3p40_6/Base sky130_asc_pnp_05v5_W3p40L3p40_8_1/sky130_fd_pr__rf_pnp_05v5_W3p40L3p40_5/Emitter
+ sky130_asc_pnp_05v5_W3p40L3p40_8_1/sky130_fd_pr__rf_pnp_05v5_W3p40L3p40_5/Collector
+ sky130_asc_pnp_05v5_W3p40L3p40_8_1/sky130_fd_pr__rf_pnp_05v5_W3p40L3p40_5/Base sky130_asc_pnp_05v5_W3p40L3p40_8_1/sky130_fd_pr__rf_pnp_05v5_W3p40L3p40_4/Emitter
+ sky130_asc_pnp_05v5_W3p40L3p40_8_1/sky130_fd_pr__rf_pnp_05v5_W3p40L3p40_4/Collector
+ sky130_asc_pnp_05v5_W3p40L3p40_8_1/sky130_fd_pr__rf_pnp_05v5_W3p40L3p40_4/Base sky130_asc_pnp_05v5_W3p40L3p40_8_1/sky130_fd_pr__rf_pnp_05v5_W3p40L3p40_3/Emitter
+ sky130_asc_pnp_05v5_W3p40L3p40_8_1/sky130_fd_pr__rf_pnp_05v5_W3p40L3p40_3/Collector
+ sky130_asc_pnp_05v5_W3p40L3p40_8_1/sky130_fd_pr__rf_pnp_05v5_W3p40L3p40_3/Base sky130_asc_pnp_05v5_W3p40L3p40_8_1/sky130_fd_pr__rf_pnp_05v5_W3p40L3p40_2/Emitter
+ sky130_asc_pnp_05v5_W3p40L3p40_8_1/sky130_fd_pr__rf_pnp_05v5_W3p40L3p40_2/Collector
+ sky130_asc_pnp_05v5_W3p40L3p40_8_1/sky130_fd_pr__rf_pnp_05v5_W3p40L3p40_2/Base sky130_asc_res_xhigh_po_2p85_1_19/Rout
+ VSS VSS sky130_asc_res_xhigh_po_2p85_1_19/Rout VSS VSS sky130_asc_res_xhigh_po_2p85_1_19/Rout
+ VSS VSS sky130_asc_pnp_05v5_W3p40L3p40_8_1/Emitter sky130_asc_pnp_05v5_W3p40L3p40_8_1/Base
+ VSS VDD VSS sky130_asc_pnp_05v5_W3p40L3p40_8
Xsky130_asc_cap_mim_m3_1_3 VDD sky130_asc_cap_mim_m3_1_4/Cout VDD VSS VSS sky130_asc_cap_mim_m3_1
Xsky130_asc_pnp_05v5_W3p40L3p40_8_2 sky130_asc_pnp_05v5_W3p40L3p40_8_2/sky130_fd_pr__rf_pnp_05v5_W3p40L3p40_6/Emitter
+ sky130_asc_pnp_05v5_W3p40L3p40_8_2/sky130_fd_pr__rf_pnp_05v5_W3p40L3p40_6/Collector
+ sky130_asc_pnp_05v5_W3p40L3p40_8_2/sky130_fd_pr__rf_pnp_05v5_W3p40L3p40_6/Base sky130_asc_pnp_05v5_W3p40L3p40_8_2/sky130_fd_pr__rf_pnp_05v5_W3p40L3p40_5/Emitter
+ sky130_asc_pnp_05v5_W3p40L3p40_8_2/sky130_fd_pr__rf_pnp_05v5_W3p40L3p40_5/Collector
+ sky130_asc_pnp_05v5_W3p40L3p40_8_2/sky130_fd_pr__rf_pnp_05v5_W3p40L3p40_5/Base sky130_asc_pnp_05v5_W3p40L3p40_8_2/sky130_fd_pr__rf_pnp_05v5_W3p40L3p40_4/Emitter
+ sky130_asc_pnp_05v5_W3p40L3p40_8_2/sky130_fd_pr__rf_pnp_05v5_W3p40L3p40_4/Collector
+ sky130_asc_pnp_05v5_W3p40L3p40_8_2/sky130_fd_pr__rf_pnp_05v5_W3p40L3p40_4/Base sky130_asc_pnp_05v5_W3p40L3p40_8_2/sky130_fd_pr__rf_pnp_05v5_W3p40L3p40_3/Emitter
+ sky130_asc_pnp_05v5_W3p40L3p40_8_2/sky130_fd_pr__rf_pnp_05v5_W3p40L3p40_3/Collector
+ sky130_asc_pnp_05v5_W3p40L3p40_8_2/sky130_fd_pr__rf_pnp_05v5_W3p40L3p40_3/Base sky130_asc_pnp_05v5_W3p40L3p40_8_2/sky130_fd_pr__rf_pnp_05v5_W3p40L3p40_2/Emitter
+ sky130_asc_pnp_05v5_W3p40L3p40_8_2/sky130_fd_pr__rf_pnp_05v5_W3p40L3p40_2/Collector
+ sky130_asc_pnp_05v5_W3p40L3p40_8_2/sky130_fd_pr__rf_pnp_05v5_W3p40L3p40_2/Base sky130_asc_pnp_05v5_W3p40L3p40_8_3/Emitter
+ sky130_asc_pnp_05v5_W3p40L3p40_8_3/Base sky130_asc_pnp_05v5_W3p40L3p40_8_3/Base
+ sky130_asc_pnp_05v5_W3p40L3p40_8_3/Emitter sky130_asc_pnp_05v5_W3p40L3p40_8_3/Base
+ sky130_asc_pnp_05v5_W3p40L3p40_8_3/Base sky130_asc_pnp_05v5_W3p40L3p40_8_3/Emitter
+ sky130_asc_pnp_05v5_W3p40L3p40_8_3/Base sky130_asc_pnp_05v5_W3p40L3p40_8_3/Base
+ sky130_asc_pnp_05v5_W3p40L3p40_8_2/Emitter sky130_asc_pnp_05v5_W3p40L3p40_8_2/Base